<?xml version="1.0" encoding="UTF-8"?>
<configuration xmlns:xsi="http://www.w3.org/2001/XMLSchema-instance" xsi:noNamespaceSchemaLocation="http://sumo.dlr.de/xsd/sumoConfiguration.xsd">
    <input>
        <net-file value="grid3x3.net.xml"/>
        <route-files value="grid3x3.rou.xml"/>
    </input>
    
    <time>
        <begin value="0"/>
        <end value="3600"/>
        <step-length value="1.0"/>
    </time>
    
    <processing>
        <time-to-teleport value="-1"/>
        <max-depart-delay value="300"/>
        <ignore-route-errors value="true"/>
    </processing>
    
    <routing>
        <device.rerouting.adaptation-steps value="180"/>
    </routing>
    
    <report>
        <verbose value="true"/>
        <no-step-log value="true"/>
        <duration-log.statistics value="true"/>
    </report>
    
    <gui_only>
        <gui-settings-file value="grid3x3.settings.xml"/>
        <start value="true"/>
    </gui_only>
</configuration>