<?xml version="1.0" encoding="UTF-8"?>

<!-- generated on 2025-11-23 11:33:52 by Eclipse SUMO netconvert Version 1.23.1
<netconvertConfiguration xmlns:xsi="http://www.w3.org/2001/XMLSchema-instance" xsi:noNamespaceSchemaLocation="http://sumo.dlr.de/xsd/netconvertConfiguration.xsd">

    <input>
        <node-files value="grid3x3.nod.xml"/>
        <edge-files value="grid3x3.edg.xml"/>
    </input>

    <output>
        <output-file value="grid3x3.net.xml"/>
    </output>

    <processing>
        <lefthand value="true"/>
    </processing>

</netconvertConfiguration>
-->

<net version="1.20" junctionCornerDetail="5" lefthand="true" limitTurnSpeed="5.50" xmlns:xsi="http://www.w3.org/2001/XMLSchema-instance" xsi:noNamespaceSchemaLocation="http://sumo.dlr.de/xsd/net_file.xsd">

    <location netOffset="250.00,250.00" convBoundary="0.00,-0.00,1000.00,1000.00" origBoundary="-250.00,-250.00,750.00,750.00" projParameter="!"/>

    <edge id=":E0_0" function="internal">
        <lane id=":E0_0_0" index="0" speed="3.65" length="4.67" shape="1000.00,251.60 1001.20,250.80 1001.60,250.00 1001.20,249.20 1000.00,248.40"/>
    </edge>
    <edge id=":E1_0" function="internal">
        <lane id=":E1_0_0" index="0" speed="3.65" length="4.67" shape="1000.00,501.60 1001.20,500.80 1001.60,500.00 1001.20,499.20 1000.00,498.40"/>
    </edge>
    <edge id=":E2_0" function="internal">
        <lane id=":E2_0_0" index="0" speed="3.65" length="4.67" shape="1000.00,751.60 1001.20,750.80 1001.60,750.00 1001.20,749.20 1000.00,748.40"/>
    </edge>
    <edge id=":J00_0" function="internal">
        <lane id=":J00_0_0" index="0" speed="6.51" length="9.03" shape="245.20,239.60 244.85,242.05 243.80,243.80 242.05,244.85 239.60,245.20"/>
    </edge>
    <edge id=":J00_1" function="internal">
        <lane id=":J00_1_0" index="0" speed="13.89" length="20.80" shape="245.20,239.60 245.20,260.40"/>
        <lane id=":J00_1_1" index="1" speed="13.89" length="20.80" shape="248.40,239.60 248.40,260.40"/>
    </edge>
    <edge id=":J00_3" function="internal">
        <lane id=":J00_3_0" index="0" speed="9.26" length="5.01" shape="248.40,239.60 249.11,244.56"/>
    </edge>
    <edge id=":J00_4" function="internal">
        <lane id=":J00_4_0" index="0" speed="3.65" length="1.44" shape="248.40,239.60 249.20,240.80"/>
    </edge>
    <edge id=":J00_20" function="internal">
        <lane id=":J00_20_0" index="0" speed="9.26" length="14.34" shape="249.11,244.56 249.15,244.85 251.40,248.60 255.15,250.85 260.40,251.60"/>
    </edge>
    <edge id=":J00_21" function="internal">
        <lane id=":J00_21_0" index="0" speed="3.65" length="3.23" shape="249.20,240.80 250.00,241.20 250.80,240.80 251.60,239.60"/>
    </edge>
    <edge id=":J00_5" function="internal">
        <lane id=":J00_5_0" index="0" speed="6.51" length="9.03" shape="260.40,245.20 257.95,244.85 256.20,243.80 255.15,242.05 254.80,239.60"/>
    </edge>
    <edge id=":J00_6" function="internal">
        <lane id=":J00_6_0" index="0" speed="13.89" length="20.80" shape="260.40,245.20 239.60,245.20"/>
        <lane id=":J00_6_1" index="1" speed="13.89" length="20.80" shape="260.40,248.40 239.60,248.40"/>
    </edge>
    <edge id=":J00_8" function="internal">
        <lane id=":J00_8_0" index="0" speed="9.26" length="5.01" shape="260.40,248.40 255.44,249.11"/>
    </edge>
    <edge id=":J00_9" function="internal">
        <lane id=":J00_9_0" index="0" speed="3.65" length="1.44" shape="260.40,248.40 259.20,249.20"/>
    </edge>
    <edge id=":J00_22" function="internal">
        <lane id=":J00_22_0" index="0" speed="9.26" length="14.34" shape="255.44,249.11 255.15,249.15 251.40,251.40 249.15,255.15 248.40,260.40"/>
    </edge>
    <edge id=":J00_23" function="internal">
        <lane id=":J00_23_0" index="0" speed="3.65" length="3.23" shape="259.20,249.20 258.80,250.00 259.20,250.80 260.40,251.60"/>
    </edge>
    <edge id=":J00_10" function="internal">
        <lane id=":J00_10_0" index="0" speed="6.51" length="9.03" shape="254.80,260.40 255.15,257.95 256.20,256.20 257.95,255.15 260.40,254.80"/>
    </edge>
    <edge id=":J00_11" function="internal">
        <lane id=":J00_11_0" index="0" speed="13.89" length="20.80" shape="254.80,260.40 254.80,239.60"/>
        <lane id=":J00_11_1" index="1" speed="13.89" length="20.80" shape="251.60,260.40 251.60,239.60"/>
    </edge>
    <edge id=":J00_13" function="internal">
        <lane id=":J00_13_0" index="0" speed="9.26" length="5.01" shape="251.60,260.40 250.89,255.44"/>
    </edge>
    <edge id=":J00_14" function="internal">
        <lane id=":J00_14_0" index="0" speed="3.65" length="1.44" shape="251.60,260.40 250.80,259.20"/>
    </edge>
    <edge id=":J00_24" function="internal">
        <lane id=":J00_24_0" index="0" speed="9.26" length="14.34" shape="250.89,255.44 250.85,255.15 248.60,251.40 244.85,249.15 239.60,248.40"/>
    </edge>
    <edge id=":J00_25" function="internal">
        <lane id=":J00_25_0" index="0" speed="3.65" length="3.23" shape="250.80,259.20 250.00,258.80 249.20,259.20 248.40,260.40"/>
    </edge>
    <edge id=":J00_15" function="internal">
        <lane id=":J00_15_0" index="0" speed="6.51" length="9.03" shape="239.60,254.80 242.05,255.15 243.80,256.20 244.85,257.95 245.20,260.40"/>
    </edge>
    <edge id=":J00_16" function="internal">
        <lane id=":J00_16_0" index="0" speed="13.89" length="20.80" shape="239.60,254.80 260.40,254.80"/>
        <lane id=":J00_16_1" index="1" speed="13.89" length="20.80" shape="239.60,251.60 260.40,251.60"/>
    </edge>
    <edge id=":J00_18" function="internal">
        <lane id=":J00_18_0" index="0" speed="9.26" length="5.01" shape="239.60,251.60 244.56,250.89"/>
    </edge>
    <edge id=":J00_19" function="internal">
        <lane id=":J00_19_0" index="0" speed="3.65" length="1.44" shape="239.60,251.60 240.80,250.80"/>
    </edge>
    <edge id=":J00_26" function="internal">
        <lane id=":J00_26_0" index="0" speed="9.26" length="14.34" shape="244.56,250.89 244.85,250.85 248.60,248.60 250.85,244.85 251.60,239.60"/>
    </edge>
    <edge id=":J00_27" function="internal">
        <lane id=":J00_27_0" index="0" speed="3.65" length="3.23" shape="240.80,250.80 241.20,250.00 240.80,249.20 239.60,248.40"/>
    </edge>
    <edge id=":J01_0" function="internal">
        <lane id=":J01_0_0" index="0" speed="6.51" length="9.03" shape="245.20,489.60 244.85,492.05 243.80,493.80 242.05,494.85 239.60,495.20"/>
    </edge>
    <edge id=":J01_1" function="internal">
        <lane id=":J01_1_0" index="0" speed="13.89" length="20.80" shape="245.20,489.60 245.20,510.40"/>
        <lane id=":J01_1_1" index="1" speed="13.89" length="20.80" shape="248.40,489.60 248.40,510.40"/>
    </edge>
    <edge id=":J01_3" function="internal">
        <lane id=":J01_3_0" index="0" speed="9.26" length="5.01" shape="248.40,489.60 249.11,494.56"/>
    </edge>
    <edge id=":J01_4" function="internal">
        <lane id=":J01_4_0" index="0" speed="3.65" length="1.44" shape="248.40,489.60 249.20,490.80"/>
    </edge>
    <edge id=":J01_20" function="internal">
        <lane id=":J01_20_0" index="0" speed="9.26" length="14.34" shape="249.11,494.56 249.15,494.85 251.40,498.60 255.15,500.85 260.40,501.60"/>
    </edge>
    <edge id=":J01_21" function="internal">
        <lane id=":J01_21_0" index="0" speed="3.65" length="3.23" shape="249.20,490.80 250.00,491.20 250.80,490.80 251.60,489.60"/>
    </edge>
    <edge id=":J01_5" function="internal">
        <lane id=":J01_5_0" index="0" speed="6.51" length="9.03" shape="260.40,495.20 257.95,494.85 256.20,493.80 255.15,492.05 254.80,489.60"/>
    </edge>
    <edge id=":J01_6" function="internal">
        <lane id=":J01_6_0" index="0" speed="13.89" length="20.80" shape="260.40,495.20 239.60,495.20"/>
        <lane id=":J01_6_1" index="1" speed="13.89" length="20.80" shape="260.40,498.40 239.60,498.40"/>
    </edge>
    <edge id=":J01_8" function="internal">
        <lane id=":J01_8_0" index="0" speed="9.26" length="5.01" shape="260.40,498.40 255.44,499.11"/>
    </edge>
    <edge id=":J01_9" function="internal">
        <lane id=":J01_9_0" index="0" speed="3.65" length="1.44" shape="260.40,498.40 259.20,499.20"/>
    </edge>
    <edge id=":J01_22" function="internal">
        <lane id=":J01_22_0" index="0" speed="9.26" length="14.34" shape="255.44,499.11 255.15,499.15 251.40,501.40 249.15,505.15 248.40,510.40"/>
    </edge>
    <edge id=":J01_23" function="internal">
        <lane id=":J01_23_0" index="0" speed="3.65" length="3.23" shape="259.20,499.20 258.80,500.00 259.20,500.80 260.40,501.60"/>
    </edge>
    <edge id=":J01_10" function="internal">
        <lane id=":J01_10_0" index="0" speed="6.51" length="9.03" shape="254.80,510.40 255.15,507.95 256.20,506.20 257.95,505.15 260.40,504.80"/>
    </edge>
    <edge id=":J01_11" function="internal">
        <lane id=":J01_11_0" index="0" speed="13.89" length="20.80" shape="254.80,510.40 254.80,489.60"/>
        <lane id=":J01_11_1" index="1" speed="13.89" length="20.80" shape="251.60,510.40 251.60,489.60"/>
    </edge>
    <edge id=":J01_13" function="internal">
        <lane id=":J01_13_0" index="0" speed="9.26" length="5.01" shape="251.60,510.40 250.89,505.44"/>
    </edge>
    <edge id=":J01_14" function="internal">
        <lane id=":J01_14_0" index="0" speed="3.65" length="1.44" shape="251.60,510.40 250.80,509.20"/>
    </edge>
    <edge id=":J01_24" function="internal">
        <lane id=":J01_24_0" index="0" speed="9.26" length="14.34" shape="250.89,505.44 250.85,505.15 248.60,501.40 244.85,499.15 239.60,498.40"/>
    </edge>
    <edge id=":J01_25" function="internal">
        <lane id=":J01_25_0" index="0" speed="3.65" length="3.23" shape="250.80,509.20 250.00,508.80 249.20,509.20 248.40,510.40"/>
    </edge>
    <edge id=":J01_15" function="internal">
        <lane id=":J01_15_0" index="0" speed="6.51" length="9.03" shape="239.60,504.80 242.05,505.15 243.80,506.20 244.85,507.95 245.20,510.40"/>
    </edge>
    <edge id=":J01_16" function="internal">
        <lane id=":J01_16_0" index="0" speed="13.89" length="20.80" shape="239.60,504.80 260.40,504.80"/>
        <lane id=":J01_16_1" index="1" speed="13.89" length="20.80" shape="239.60,501.60 260.40,501.60"/>
    </edge>
    <edge id=":J01_18" function="internal">
        <lane id=":J01_18_0" index="0" speed="9.26" length="5.01" shape="239.60,501.60 244.56,500.89"/>
    </edge>
    <edge id=":J01_19" function="internal">
        <lane id=":J01_19_0" index="0" speed="3.65" length="1.44" shape="239.60,501.60 240.80,500.80"/>
    </edge>
    <edge id=":J01_26" function="internal">
        <lane id=":J01_26_0" index="0" speed="9.26" length="14.34" shape="244.56,500.89 244.85,500.85 248.60,498.60 250.85,494.85 251.60,489.60"/>
    </edge>
    <edge id=":J01_27" function="internal">
        <lane id=":J01_27_0" index="0" speed="3.65" length="3.23" shape="240.80,500.80 241.20,500.00 240.80,499.20 239.60,498.40"/>
    </edge>
    <edge id=":J02_0" function="internal">
        <lane id=":J02_0_0" index="0" speed="6.51" length="9.03" shape="245.20,739.60 244.85,742.05 243.80,743.80 242.05,744.85 239.60,745.20"/>
    </edge>
    <edge id=":J02_1" function="internal">
        <lane id=":J02_1_0" index="0" speed="13.89" length="20.80" shape="245.20,739.60 245.20,760.40"/>
        <lane id=":J02_1_1" index="1" speed="13.89" length="20.80" shape="248.40,739.60 248.40,760.40"/>
    </edge>
    <edge id=":J02_3" function="internal">
        <lane id=":J02_3_0" index="0" speed="9.26" length="5.01" shape="248.40,739.60 249.11,744.56"/>
    </edge>
    <edge id=":J02_4" function="internal">
        <lane id=":J02_4_0" index="0" speed="3.65" length="1.44" shape="248.40,739.60 249.20,740.80"/>
    </edge>
    <edge id=":J02_20" function="internal">
        <lane id=":J02_20_0" index="0" speed="9.26" length="14.34" shape="249.11,744.56 249.15,744.85 251.40,748.60 255.15,750.85 260.40,751.60"/>
    </edge>
    <edge id=":J02_21" function="internal">
        <lane id=":J02_21_0" index="0" speed="3.65" length="3.23" shape="249.20,740.80 250.00,741.20 250.80,740.80 251.60,739.60"/>
    </edge>
    <edge id=":J02_5" function="internal">
        <lane id=":J02_5_0" index="0" speed="6.51" length="9.03" shape="260.40,745.20 257.95,744.85 256.20,743.80 255.15,742.05 254.80,739.60"/>
    </edge>
    <edge id=":J02_6" function="internal">
        <lane id=":J02_6_0" index="0" speed="13.89" length="20.80" shape="260.40,745.20 239.60,745.20"/>
        <lane id=":J02_6_1" index="1" speed="13.89" length="20.80" shape="260.40,748.40 239.60,748.40"/>
    </edge>
    <edge id=":J02_8" function="internal">
        <lane id=":J02_8_0" index="0" speed="9.26" length="5.01" shape="260.40,748.40 255.44,749.11"/>
    </edge>
    <edge id=":J02_9" function="internal">
        <lane id=":J02_9_0" index="0" speed="3.65" length="1.44" shape="260.40,748.40 259.20,749.20"/>
    </edge>
    <edge id=":J02_22" function="internal">
        <lane id=":J02_22_0" index="0" speed="9.26" length="14.34" shape="255.44,749.11 255.15,749.15 251.40,751.40 249.15,755.15 248.40,760.40"/>
    </edge>
    <edge id=":J02_23" function="internal">
        <lane id=":J02_23_0" index="0" speed="3.65" length="3.23" shape="259.20,749.20 258.80,750.00 259.20,750.80 260.40,751.60"/>
    </edge>
    <edge id=":J02_10" function="internal">
        <lane id=":J02_10_0" index="0" speed="6.51" length="9.03" shape="254.80,760.40 255.15,757.95 256.20,756.20 257.95,755.15 260.40,754.80"/>
    </edge>
    <edge id=":J02_11" function="internal">
        <lane id=":J02_11_0" index="0" speed="13.89" length="20.80" shape="254.80,760.40 254.80,739.60"/>
        <lane id=":J02_11_1" index="1" speed="13.89" length="20.80" shape="251.60,760.40 251.60,739.60"/>
    </edge>
    <edge id=":J02_13" function="internal">
        <lane id=":J02_13_0" index="0" speed="9.26" length="5.01" shape="251.60,760.40 250.89,755.44"/>
    </edge>
    <edge id=":J02_14" function="internal">
        <lane id=":J02_14_0" index="0" speed="3.65" length="1.44" shape="251.60,760.40 250.80,759.20"/>
    </edge>
    <edge id=":J02_24" function="internal">
        <lane id=":J02_24_0" index="0" speed="9.26" length="14.34" shape="250.89,755.44 250.85,755.15 248.60,751.40 244.85,749.15 239.60,748.40"/>
    </edge>
    <edge id=":J02_25" function="internal">
        <lane id=":J02_25_0" index="0" speed="3.65" length="3.23" shape="250.80,759.20 250.00,758.80 249.20,759.20 248.40,760.40"/>
    </edge>
    <edge id=":J02_15" function="internal">
        <lane id=":J02_15_0" index="0" speed="6.51" length="9.03" shape="239.60,754.80 242.05,755.15 243.80,756.20 244.85,757.95 245.20,760.40"/>
    </edge>
    <edge id=":J02_16" function="internal">
        <lane id=":J02_16_0" index="0" speed="13.89" length="20.80" shape="239.60,754.80 260.40,754.80"/>
        <lane id=":J02_16_1" index="1" speed="13.89" length="20.80" shape="239.60,751.60 260.40,751.60"/>
    </edge>
    <edge id=":J02_18" function="internal">
        <lane id=":J02_18_0" index="0" speed="9.26" length="5.01" shape="239.60,751.60 244.56,750.89"/>
    </edge>
    <edge id=":J02_19" function="internal">
        <lane id=":J02_19_0" index="0" speed="3.65" length="1.44" shape="239.60,751.60 240.80,750.80"/>
    </edge>
    <edge id=":J02_26" function="internal">
        <lane id=":J02_26_0" index="0" speed="9.26" length="14.34" shape="244.56,750.89 244.85,750.85 248.60,748.60 250.85,744.85 251.60,739.60"/>
    </edge>
    <edge id=":J02_27" function="internal">
        <lane id=":J02_27_0" index="0" speed="3.65" length="3.23" shape="240.80,750.80 241.20,750.00 240.80,749.20 239.60,748.40"/>
    </edge>
    <edge id=":J10_0" function="internal">
        <lane id=":J10_0_0" index="0" speed="6.51" length="9.03" shape="495.20,239.60 494.85,242.05 493.80,243.80 492.05,244.85 489.60,245.20"/>
    </edge>
    <edge id=":J10_1" function="internal">
        <lane id=":J10_1_0" index="0" speed="13.89" length="20.80" shape="495.20,239.60 495.20,260.40"/>
        <lane id=":J10_1_1" index="1" speed="13.89" length="20.80" shape="498.40,239.60 498.40,260.40"/>
    </edge>
    <edge id=":J10_3" function="internal">
        <lane id=":J10_3_0" index="0" speed="9.26" length="5.01" shape="498.40,239.60 499.11,244.56"/>
    </edge>
    <edge id=":J10_4" function="internal">
        <lane id=":J10_4_0" index="0" speed="3.65" length="1.44" shape="498.40,239.60 499.20,240.80"/>
    </edge>
    <edge id=":J10_20" function="internal">
        <lane id=":J10_20_0" index="0" speed="9.26" length="14.34" shape="499.11,244.56 499.15,244.85 501.40,248.60 505.15,250.85 510.40,251.60"/>
    </edge>
    <edge id=":J10_21" function="internal">
        <lane id=":J10_21_0" index="0" speed="3.65" length="3.23" shape="499.20,240.80 500.00,241.20 500.80,240.80 501.60,239.60"/>
    </edge>
    <edge id=":J10_5" function="internal">
        <lane id=":J10_5_0" index="0" speed="6.51" length="9.03" shape="510.40,245.20 507.95,244.85 506.20,243.80 505.15,242.05 504.80,239.60"/>
    </edge>
    <edge id=":J10_6" function="internal">
        <lane id=":J10_6_0" index="0" speed="13.89" length="20.80" shape="510.40,245.20 489.60,245.20"/>
        <lane id=":J10_6_1" index="1" speed="13.89" length="20.80" shape="510.40,248.40 489.60,248.40"/>
    </edge>
    <edge id=":J10_8" function="internal">
        <lane id=":J10_8_0" index="0" speed="9.26" length="5.01" shape="510.40,248.40 505.44,249.11"/>
    </edge>
    <edge id=":J10_9" function="internal">
        <lane id=":J10_9_0" index="0" speed="3.65" length="1.44" shape="510.40,248.40 509.20,249.20"/>
    </edge>
    <edge id=":J10_22" function="internal">
        <lane id=":J10_22_0" index="0" speed="9.26" length="14.34" shape="505.44,249.11 505.15,249.15 501.40,251.40 499.15,255.15 498.40,260.40"/>
    </edge>
    <edge id=":J10_23" function="internal">
        <lane id=":J10_23_0" index="0" speed="3.65" length="3.23" shape="509.20,249.20 508.80,250.00 509.20,250.80 510.40,251.60"/>
    </edge>
    <edge id=":J10_10" function="internal">
        <lane id=":J10_10_0" index="0" speed="6.51" length="9.03" shape="504.80,260.40 505.15,257.95 506.20,256.20 507.95,255.15 510.40,254.80"/>
    </edge>
    <edge id=":J10_11" function="internal">
        <lane id=":J10_11_0" index="0" speed="13.89" length="20.80" shape="504.80,260.40 504.80,239.60"/>
        <lane id=":J10_11_1" index="1" speed="13.89" length="20.80" shape="501.60,260.40 501.60,239.60"/>
    </edge>
    <edge id=":J10_13" function="internal">
        <lane id=":J10_13_0" index="0" speed="9.26" length="5.01" shape="501.60,260.40 500.89,255.44"/>
    </edge>
    <edge id=":J10_14" function="internal">
        <lane id=":J10_14_0" index="0" speed="3.65" length="1.44" shape="501.60,260.40 500.80,259.20"/>
    </edge>
    <edge id=":J10_24" function="internal">
        <lane id=":J10_24_0" index="0" speed="9.26" length="14.34" shape="500.89,255.44 500.85,255.15 498.60,251.40 494.85,249.15 489.60,248.40"/>
    </edge>
    <edge id=":J10_25" function="internal">
        <lane id=":J10_25_0" index="0" speed="3.65" length="3.23" shape="500.80,259.20 500.00,258.80 499.20,259.20 498.40,260.40"/>
    </edge>
    <edge id=":J10_15" function="internal">
        <lane id=":J10_15_0" index="0" speed="6.51" length="9.03" shape="489.60,254.80 492.05,255.15 493.80,256.20 494.85,257.95 495.20,260.40"/>
    </edge>
    <edge id=":J10_16" function="internal">
        <lane id=":J10_16_0" index="0" speed="13.89" length="20.80" shape="489.60,254.80 510.40,254.80"/>
        <lane id=":J10_16_1" index="1" speed="13.89" length="20.80" shape="489.60,251.60 510.40,251.60"/>
    </edge>
    <edge id=":J10_18" function="internal">
        <lane id=":J10_18_0" index="0" speed="9.26" length="5.01" shape="489.60,251.60 494.56,250.89"/>
    </edge>
    <edge id=":J10_19" function="internal">
        <lane id=":J10_19_0" index="0" speed="3.65" length="1.44" shape="489.60,251.60 490.80,250.80"/>
    </edge>
    <edge id=":J10_26" function="internal">
        <lane id=":J10_26_0" index="0" speed="9.26" length="14.34" shape="494.56,250.89 494.85,250.85 498.60,248.60 500.85,244.85 501.60,239.60"/>
    </edge>
    <edge id=":J10_27" function="internal">
        <lane id=":J10_27_0" index="0" speed="3.65" length="3.23" shape="490.80,250.80 491.20,250.00 490.80,249.20 489.60,248.40"/>
    </edge>
    <edge id=":J11_0" function="internal">
        <lane id=":J11_0_0" index="0" speed="6.51" length="9.03" shape="495.20,489.60 494.85,492.05 493.80,493.80 492.05,494.85 489.60,495.20"/>
    </edge>
    <edge id=":J11_1" function="internal">
        <lane id=":J11_1_0" index="0" speed="13.89" length="20.80" shape="495.20,489.60 495.20,510.40"/>
        <lane id=":J11_1_1" index="1" speed="13.89" length="20.80" shape="498.40,489.60 498.40,510.40"/>
    </edge>
    <edge id=":J11_3" function="internal">
        <lane id=":J11_3_0" index="0" speed="9.26" length="5.01" shape="498.40,489.60 499.11,494.56"/>
    </edge>
    <edge id=":J11_4" function="internal">
        <lane id=":J11_4_0" index="0" speed="3.65" length="1.44" shape="498.40,489.60 499.20,490.80"/>
    </edge>
    <edge id=":J11_20" function="internal">
        <lane id=":J11_20_0" index="0" speed="9.26" length="14.34" shape="499.11,494.56 499.15,494.85 501.40,498.60 505.15,500.85 510.40,501.60"/>
    </edge>
    <edge id=":J11_21" function="internal">
        <lane id=":J11_21_0" index="0" speed="3.65" length="3.23" shape="499.20,490.80 500.00,491.20 500.80,490.80 501.60,489.60"/>
    </edge>
    <edge id=":J11_5" function="internal">
        <lane id=":J11_5_0" index="0" speed="6.51" length="9.03" shape="510.40,495.20 507.95,494.85 506.20,493.80 505.15,492.05 504.80,489.60"/>
    </edge>
    <edge id=":J11_6" function="internal">
        <lane id=":J11_6_0" index="0" speed="13.89" length="20.80" shape="510.40,495.20 489.60,495.20"/>
        <lane id=":J11_6_1" index="1" speed="13.89" length="20.80" shape="510.40,498.40 489.60,498.40"/>
    </edge>
    <edge id=":J11_8" function="internal">
        <lane id=":J11_8_0" index="0" speed="9.26" length="5.01" shape="510.40,498.40 505.44,499.11"/>
    </edge>
    <edge id=":J11_9" function="internal">
        <lane id=":J11_9_0" index="0" speed="3.65" length="1.44" shape="510.40,498.40 509.20,499.20"/>
    </edge>
    <edge id=":J11_22" function="internal">
        <lane id=":J11_22_0" index="0" speed="9.26" length="14.34" shape="505.44,499.11 505.15,499.15 501.40,501.40 499.15,505.15 498.40,510.40"/>
    </edge>
    <edge id=":J11_23" function="internal">
        <lane id=":J11_23_0" index="0" speed="3.65" length="3.23" shape="509.20,499.20 508.80,500.00 509.20,500.80 510.40,501.60"/>
    </edge>
    <edge id=":J11_10" function="internal">
        <lane id=":J11_10_0" index="0" speed="6.51" length="9.03" shape="504.80,510.40 505.15,507.95 506.20,506.20 507.95,505.15 510.40,504.80"/>
    </edge>
    <edge id=":J11_11" function="internal">
        <lane id=":J11_11_0" index="0" speed="13.89" length="20.80" shape="504.80,510.40 504.80,489.60"/>
        <lane id=":J11_11_1" index="1" speed="13.89" length="20.80" shape="501.60,510.40 501.60,489.60"/>
    </edge>
    <edge id=":J11_13" function="internal">
        <lane id=":J11_13_0" index="0" speed="9.26" length="5.01" shape="501.60,510.40 500.89,505.44"/>
    </edge>
    <edge id=":J11_14" function="internal">
        <lane id=":J11_14_0" index="0" speed="3.65" length="1.44" shape="501.60,510.40 500.80,509.20"/>
    </edge>
    <edge id=":J11_24" function="internal">
        <lane id=":J11_24_0" index="0" speed="9.26" length="14.34" shape="500.89,505.44 500.85,505.15 498.60,501.40 494.85,499.15 489.60,498.40"/>
    </edge>
    <edge id=":J11_25" function="internal">
        <lane id=":J11_25_0" index="0" speed="3.65" length="3.23" shape="500.80,509.20 500.00,508.80 499.20,509.20 498.40,510.40"/>
    </edge>
    <edge id=":J11_15" function="internal">
        <lane id=":J11_15_0" index="0" speed="6.51" length="9.03" shape="489.60,504.80 492.05,505.15 493.80,506.20 494.85,507.95 495.20,510.40"/>
    </edge>
    <edge id=":J11_16" function="internal">
        <lane id=":J11_16_0" index="0" speed="13.89" length="20.80" shape="489.60,504.80 510.40,504.80"/>
        <lane id=":J11_16_1" index="1" speed="13.89" length="20.80" shape="489.60,501.60 510.40,501.60"/>
    </edge>
    <edge id=":J11_18" function="internal">
        <lane id=":J11_18_0" index="0" speed="9.26" length="5.01" shape="489.60,501.60 494.56,500.89"/>
    </edge>
    <edge id=":J11_19" function="internal">
        <lane id=":J11_19_0" index="0" speed="3.65" length="1.44" shape="489.60,501.60 490.80,500.80"/>
    </edge>
    <edge id=":J11_26" function="internal">
        <lane id=":J11_26_0" index="0" speed="9.26" length="14.34" shape="494.56,500.89 494.85,500.85 498.60,498.60 500.85,494.85 501.60,489.60"/>
    </edge>
    <edge id=":J11_27" function="internal">
        <lane id=":J11_27_0" index="0" speed="3.65" length="3.23" shape="490.80,500.80 491.20,500.00 490.80,499.20 489.60,498.40"/>
    </edge>
    <edge id=":J12_0" function="internal">
        <lane id=":J12_0_0" index="0" speed="6.51" length="9.03" shape="495.20,739.60 494.85,742.05 493.80,743.80 492.05,744.85 489.60,745.20"/>
    </edge>
    <edge id=":J12_1" function="internal">
        <lane id=":J12_1_0" index="0" speed="13.89" length="20.80" shape="495.20,739.60 495.20,760.40"/>
        <lane id=":J12_1_1" index="1" speed="13.89" length="20.80" shape="498.40,739.60 498.40,760.40"/>
    </edge>
    <edge id=":J12_3" function="internal">
        <lane id=":J12_3_0" index="0" speed="9.26" length="5.01" shape="498.40,739.60 499.11,744.56"/>
    </edge>
    <edge id=":J12_4" function="internal">
        <lane id=":J12_4_0" index="0" speed="3.65" length="1.44" shape="498.40,739.60 499.20,740.80"/>
    </edge>
    <edge id=":J12_20" function="internal">
        <lane id=":J12_20_0" index="0" speed="9.26" length="14.34" shape="499.11,744.56 499.15,744.85 501.40,748.60 505.15,750.85 510.40,751.60"/>
    </edge>
    <edge id=":J12_21" function="internal">
        <lane id=":J12_21_0" index="0" speed="3.65" length="3.23" shape="499.20,740.80 500.00,741.20 500.80,740.80 501.60,739.60"/>
    </edge>
    <edge id=":J12_5" function="internal">
        <lane id=":J12_5_0" index="0" speed="6.51" length="9.03" shape="510.40,745.20 507.95,744.85 506.20,743.80 505.15,742.05 504.80,739.60"/>
    </edge>
    <edge id=":J12_6" function="internal">
        <lane id=":J12_6_0" index="0" speed="13.89" length="20.80" shape="510.40,745.20 489.60,745.20"/>
        <lane id=":J12_6_1" index="1" speed="13.89" length="20.80" shape="510.40,748.40 489.60,748.40"/>
    </edge>
    <edge id=":J12_8" function="internal">
        <lane id=":J12_8_0" index="0" speed="9.26" length="5.01" shape="510.40,748.40 505.44,749.11"/>
    </edge>
    <edge id=":J12_9" function="internal">
        <lane id=":J12_9_0" index="0" speed="3.65" length="1.44" shape="510.40,748.40 509.20,749.20"/>
    </edge>
    <edge id=":J12_22" function="internal">
        <lane id=":J12_22_0" index="0" speed="9.26" length="14.34" shape="505.44,749.11 505.15,749.15 501.40,751.40 499.15,755.15 498.40,760.40"/>
    </edge>
    <edge id=":J12_23" function="internal">
        <lane id=":J12_23_0" index="0" speed="3.65" length="3.23" shape="509.20,749.20 508.80,750.00 509.20,750.80 510.40,751.60"/>
    </edge>
    <edge id=":J12_10" function="internal">
        <lane id=":J12_10_0" index="0" speed="6.51" length="9.03" shape="504.80,760.40 505.15,757.95 506.20,756.20 507.95,755.15 510.40,754.80"/>
    </edge>
    <edge id=":J12_11" function="internal">
        <lane id=":J12_11_0" index="0" speed="13.89" length="20.80" shape="504.80,760.40 504.80,739.60"/>
        <lane id=":J12_11_1" index="1" speed="13.89" length="20.80" shape="501.60,760.40 501.60,739.60"/>
    </edge>
    <edge id=":J12_13" function="internal">
        <lane id=":J12_13_0" index="0" speed="9.26" length="5.01" shape="501.60,760.40 500.89,755.44"/>
    </edge>
    <edge id=":J12_14" function="internal">
        <lane id=":J12_14_0" index="0" speed="3.65" length="1.44" shape="501.60,760.40 500.80,759.20"/>
    </edge>
    <edge id=":J12_24" function="internal">
        <lane id=":J12_24_0" index="0" speed="9.26" length="14.34" shape="500.89,755.44 500.85,755.15 498.60,751.40 494.85,749.15 489.60,748.40"/>
    </edge>
    <edge id=":J12_25" function="internal">
        <lane id=":J12_25_0" index="0" speed="3.65" length="3.23" shape="500.80,759.20 500.00,758.80 499.20,759.20 498.40,760.40"/>
    </edge>
    <edge id=":J12_15" function="internal">
        <lane id=":J12_15_0" index="0" speed="6.51" length="9.03" shape="489.60,754.80 492.05,755.15 493.80,756.20 494.85,757.95 495.20,760.40"/>
    </edge>
    <edge id=":J12_16" function="internal">
        <lane id=":J12_16_0" index="0" speed="13.89" length="20.80" shape="489.60,754.80 510.40,754.80"/>
        <lane id=":J12_16_1" index="1" speed="13.89" length="20.80" shape="489.60,751.60 510.40,751.60"/>
    </edge>
    <edge id=":J12_18" function="internal">
        <lane id=":J12_18_0" index="0" speed="9.26" length="5.01" shape="489.60,751.60 494.56,750.89"/>
    </edge>
    <edge id=":J12_19" function="internal">
        <lane id=":J12_19_0" index="0" speed="3.65" length="1.44" shape="489.60,751.60 490.80,750.80"/>
    </edge>
    <edge id=":J12_26" function="internal">
        <lane id=":J12_26_0" index="0" speed="9.26" length="14.34" shape="494.56,750.89 494.85,750.85 498.60,748.60 500.85,744.85 501.60,739.60"/>
    </edge>
    <edge id=":J12_27" function="internal">
        <lane id=":J12_27_0" index="0" speed="3.65" length="3.23" shape="490.80,750.80 491.20,750.00 490.80,749.20 489.60,748.40"/>
    </edge>
    <edge id=":J20_0" function="internal">
        <lane id=":J20_0_0" index="0" speed="6.51" length="9.03" shape="745.20,239.60 744.85,242.05 743.80,243.80 742.05,244.85 739.60,245.20"/>
    </edge>