<?xml version="1.0" encoding="UTF-8"?>

<!-- generated on 2025-12-21T12:15:53.052353+05:30 by Eclipse SUMO duarouter 1.25.0
<duarouterConfiguration xmlns:xsi="http://www.w3.org/2001/XMLSchema-instance" xsi:noNamespaceSchemaLocation="http://sumo.dlr.de/xsd/duarouterConfiguration.xsd">

    <input>
        <net-file value="F:\Research\Repo\11\multi-agent-urban-traffic-signal-optimization-in-simulated-environments\emergency_vehicle_preemption\simulation\networks\mega_scenario.net.xml"/>
        <route-files value="F:\Research\Repo\11\multi-agent-urban-traffic-signal-optimization-in-simulated-environments\emergency_vehicle_preemption\simulation\routes\mega_scenario.trips.xml"/>
    </input>

    <output>
        <output-file value="F:\Research\Repo\11\multi-agent-urban-traffic-signal-optimization-in-simulated-environments\emergency_vehicle_preemption\simulation\routes\mega_scenario.rou.xml"/>
    </output>

    <processing>
        <repair value="true"/>
    </processing>

    <report>
        <ignore-errors value="true"/>
    </report>

</duarouterConfiguration>
-->

<routes xmlns:xsi="http://www.w3.org/2001/XMLSchema-instance" xsi:noNamespaceSchemaLocation="http://sumo.dlr.de/xsd/routes_file.xsd">
    <vType id="car" length="5.00" maxSpeed="15.00" guiShape="passenger" accel="2.6" decel="4.5"/>
    <vehicle id="flow_53.0" type="car" depart="0.00">
        <route edges="A1B1 B1C1 C1C2 C2C3"/>
    </vehicle>
    <vehicle id="flow_55.0" type="car" depart="33.00">
        <route edges="D2C2 C2C1 C1C0 C0C1"/>
    </vehicle>
    <vType id="ambulance" length="6.00" maxSpeed="30.00" speedFactor="1.50" vClass="emergency" guiShape="emergency" accel="4.5" decel="6.0">
        <param key="has.bluelight.device" value="true"/>
    </vType>
    <vehicle id="EV_0" type="ambulance" depart="50.00">
        <route edges="C1B1 B1B2"/>
    </vehicle>
    <vehicle id="flow_53.1" type="car" depart="50.00">
        <route edges="A1B1 B1C1 C1C2 C2C3"/>
    </vehicle>
    <vehicle id="flow_55.1" type="car" depart="83.00">
        <route edges="D2C2 C2C1 C1C0 C0C1"/>
    </vehicle>
    <vehicle id="flow_53.2" type="car" depart="100.00">
        <route edges="A1B1 B1C1 C1C2 C2C3"/>
    </vehicle>
    <vehicle id="EV_1" type="ambulance" depart="120.00">
        <route edges="B2C2 C2B2 B2A2 A2B2"/>
    </vehicle>
    <vehicle id="flow_4.0" type="car" depart="123.00">
        <route edges="D2D3 D3C3 C3C2 C2D2"/>
    </vehicle>
    <vehicle id="flow_55.2" type="car" depart="133.00">
        <route edges="D2C2 C2C1 C1C0 C0C1"/>
    </vehicle>
    <vehicle id="flow_53.3" type="car" depart="150.00">
        <route edges="A1B1 B1C1 C1C2 C2C3"/>
    </vehicle>
    <vehicle id="flow_4.1" type="car" depart="169.15">
        <route edges="D2D3 D3C3 C3C2 C2D2"/>
    </vehicle>
    <vehicle id="flow_55.3" type="car" depart="183.00">
        <route edges="D2C2 C2C1 C1C0 C0C1"/>
    </vehicle>
    <vehicle id="flow_72.0" type="car" depart="184.00">
        <route edges="B1B2 B2A2 A2A1 A1A0"/>
    </vehicle>
    <vehicle id="EV_2" type="ambulance" depart="190.00">
        <route edges="C1C0 C0B0 B0A0 A0A1 A1A2 A2A3"/>
    </vehicle>
    <vehicle id="flow_71.0" type="car" depart="197.00">
        <route edges="C1C2 C2B2 B2A2 A2A3"/>
    </vehicle>
    <vehicle id="flow_53.4" type="car" depart="200.00">
        <route edges="A1B1 B1C1 C1C2 C2C3"/>
    </vehicle>
    <vehicle id="flow_4.2" type="car" depart="215.31">
        <route edges="D2D3 D3C3 C3C2 C2D2"/>
    </vehicle>
    <vehicle id="flow_55.4" type="car" depart="233.00">
        <route edges="D2C2 C2C1 C1C0 C0C1"/>
    </vehicle>
    <vehicle id="flow_72.1" type="car" depart="234.00">
        <route edges="B1B2 B2A2 A2A1 A1A0"/>
    </vehicle>
    <vehicle id="flow_53.5" type="car" depart="250.00">
        <route edges="A1B1 B1C1 C1C2 C2C3"/>
    </vehicle>
    <vehicle id="flow_71.1" type="car" depart="251.55">
        <route edges="C1C2 C2B2 B2A2 A2A3"/>
    </vehicle>
    <vehicle id="EV_3" type="ambulance" depart="260.00">
        <route edges="A1A0 A0B0 B0B1 B1B2 B2B3 B3C3 C3C2"/>
    </vehicle>
    <vehicle id="flow_4.3" type="car" depart="261.46">
        <route edges="D2D3 D3C3 C3C2 C2D2"/>
    </vehicle>
    <vehicle id="flow_91.0" type="car" depart="264.00">
        <route edges="B1A1 A1A2 A2B2 B2C2 C2D2 D2D1"/>
    </vehicle>
    <vehicle id="flow_56.0" type="car" depart="282.00">
        <route edges="B1B2 B2C2 C2C1 C1C0 C0D0"/>
    </vehicle>
    <vehicle id="flow_55.5" type="car" depart="283.00">
        <route edges="D2C2 C2C1 C1C0 C0C1"/>
    </vehicle>
    <vehicle id="flow_72.2" type="car" depart="284.00">
        <route edges="B1B2 B2A2 A2A1 A1A0"/>
    </vehicle>
    <vehicle id="flow_16.0" type="car" depart="287.00">
        <route edges="D1D2 D2C2 C2B2 B2A2 A2A1"/>
    </vehicle>
    <vehicle id="flow_53.6" type="car" depart="300.00">
        <route edges="A1B1 B1C1 C1C2 C2C3"/>
    </vehicle>
    <vehicle id="flow_91.1" type="car" depart="304.00">
        <route edges="B1A1 A1A2 A2B2 B2C2 C2D2 D2D1"/>
    </vehicle>
    <vehicle id="flow_47.0" type="car" depart="305.00">
        <route edges="A2A1 A1B1 B1C1 C1C2 C2C3 C3D3 D3D2"/>
    </vehicle>
    <vehicle id="flow_71.2" type="car" depart="306.09">
        <route edges="C1C2 C2B2 B2A2 A2A3"/>
    </vehicle>
    <vehicle id="flow_4.4" type="car" depart="307.61">
        <route edges="D2D3 D3C3 C3C2 C2D2"/>
    </vehicle>
    <vehicle id="flow_30.0" type="car" depart="311.00">
        <route edges="C3D3 D3D2 D2C2 C2C3 C3B3"/>
    </vehicle>
    <vehicle id="flow_1.0" type="car" depart="320.00">
        <route edges="B1B0 B0B1 B1B2 B2B3 B3B2"/>
    </vehicle>
    <vehicle id="EV_4" type="ambulance" depart="330.00">
        <route edges="A1A2 A2A3 A3B3 B3C3"/>
    </vehicle>
    <vehicle id="flow_55.6" type="car" depart="333.00">
        <route edges="D2C2 C2C1 C1C0 C0C1"/>
    </vehicle>
    <vehicle id="flow_72.3" type="car" depart="334.00">
        <route edges="B1B2 B2A2 A2A1 A1A0"/>
    </vehicle>
    <vehicle id="flow_91.2" type="car" depart="344.00">
        <route edges="B1A1 A1A2 A2B2 B2C2 C2D2 D2D1"/>
    </vehicle>
    <vehicle id="flow_47.1" type="car" depart="345.00">
        <route edges="A2A1 A1B1 B1C1 C1C2 C2C3 C3D3 D3D2"/>
    </vehicle>
    <vehicle id="flow_16.1" type="car" depart="347.00">
        <route edges="D1D2 D2C2 C2B2 B2A2 A2A1"/>
    </vehicle>
    <vehicle id="flow_53.7" type="car" depart="350.00">
        <route edges="A1B1 B1C1 C1C2 C2C3"/>
    </vehicle>
    <vehicle id="flow_4.5" type="car" depart="353.77">
        <route edges="D2D3 D3C3 C3C2 C2D2"/>
    </vehicle>
    <vehicle id="flow_26.0" type="car" depart="359.00">
        <route edges="D0C0 C0C1 C1C2 C2C3 C3B3"/>
    </vehicle>
    <vehicle id="flow_1.1" type="car" depart="360.00">
        <route edges="B1B0 B0B1 B1B2 B2B3 B3B2"/>
    </vehicle>
    <vehicle id="flow_71.3" type="car" depart="360.64">
        <route edges="C1C2 C2B2 B2A2 A2A3"/>
    </vehicle>
    <vehicle id="flow_36.0" type="car" depart="380.00">
        <route edges="C3D3 D3D2 D2D1 D1D0 D0C0 C0B0 B0A0 A0A1"/>
    </vehicle>
    <vehicle id="flow_56.1" type="car" depart="382.00">
        <route edges="B1B2 B2C2 C2C1 C1C0 C0D0"/>
    </vehicle>
    <vehicle id="flow_55.7" type="car" depart="383.00">
        <route edges="D2C2 C2C1 C1C0 C0C1"/>
    </vehicle>
    <vehicle id="flow_72.4" type="car" depart="384.00">
        <route edges="B1B2 B2A2 A2A1 A1A0"/>
    </vehicle>
    <vehicle id="flow_91.3" type="car" depart="384.00">
        <route edges="B1A1 A1A2 A2B2 B2C2 C2D2 D2D1"/>
    </vehicle>
    <vehicle id="flow_47.2" type="car" depart="385.00">
        <route edges="A2A1 A1B1 B1C1 C1C2 C2C3 C3D3 D3D2"/>
    </vehicle>
    <vehicle id="flow_30.1" type="car" depart="396.71">
        <route edges="C3D3 D3D2 D2C2 C2C3 C3B3"/>
    </vehicle>
    <vehicle id="flow_26.1" type="car" depart="399.00">
        <route edges="D0C0 C0C1 C1C2 C2C3 C3B3"/>
    </vehicle>
    <vehicle id="flow_4.6" type="car" depart="399.92">
        <route edges="D2D3 D3C3 C3C2 C2D2"/>
    </vehicle>
    <vehicle id="EV_5" type="ambulance" depart="400.00">
        <route edges="C2D2 D2C2 C2B2 B2A2"/>
    </vehicle>
    <vehicle id="flow_1.2" type="car" depart="400.00">
        <route edges="B1B0 B0B1 B1B2 B2B3 B3B2"/>
    </vehicle>
    <vehicle id="flow_53.8" type="car" depart="400.00">
        <route edges="A1B1 B1C1 C1C2 C2C3"/>
    </vehicle>
    <vehicle id="flow_16.2" type="car" depart="407.00">
        <route edges="D1D2 D2C2 C2B2 B2A2 A2A1"/>
    </vehicle>
    <vehicle id="flow_71.4" type="car" depart="415.18">
        <route edges="C1C2 C2B2 B2A2 A2A3"/>
    </vehicle>
    <vehicle id="flow_36.1" type="car" depart="422.86">
        <route edges="C3D3 D3D2 D2D1 D1D0 D0C0 C0B0 B0A0 A0A1"/>
    </vehicle>
    <vehicle id="flow_91.4" type="car" depart="424.00">
        <route edges="B1A1 A1A2 A2B2 B2C2 C2D2 D2D1"/>
    </vehicle>
    <vehicle id="flow_47.3" type="car" depart="425.00">
        <route edges="A2A1 A1B1 B1C1 C1C2 C2C3 C3D3 D3D2"/>
    </vehicle>
    <vehicle id="flow_55.8" type="car" depart="433.00">
        <route edges="D2C2 C2C1 C1C0 C0C1"/>
    </vehicle>
    <vehicle id="flow_72.5" type="car" depart="434.00">
        <route edges="B1B2 B2A2 A2A1 A1A0"/>
    </vehicle>
    <vehicle id="flow_26.2" type="car" depart="439.00">
        <route edges="D0C0 C0C1 C1C2 C2C3 C3B3"/>
    </vehicle>
    <vehicle id="flow_1.3" type="car" depart="440.00">
        <route edges="B1B0 B0B1 B1B2 B2B3 B3B2"/>
    </vehicle>
    <vehicle id="flow_4.7" type="car" depart="446.07">
        <route edges="D2D3 D3C3 C3C2 C2D2"/>
    </vehicle>
    <vehicle id="flow_2.0" type="car" depart="447.00">
        <route edges="C2C3 C3B3 B3B2 B2B1 B1B0 B0A0 A0A1"/>
    </vehicle>
    <vehicle id="flow_53.9" type="car" depart="450.00">
        <route edges="A1B1 B1C1 C1C2 C2C3"/>
    </vehicle>
    <vehicle id="flow_91.5" type="car" depart="464.00">
        <route edges="B1A1 A1A2 A2B2 B2C2 C2D2 D2D1"/>
    </vehicle>
    <vehicle id="flow_47.4" type="car" depart="465.00">
        <route edges="A2A1 A1B1 B1C1 C1C2 C2C3 C3D3 D3D2"/>
    </vehicle>
    <vehicle id="flow_36.2" type="car" depart="465.71">
        <route edges="C3D3 D3D2 D2D1 D1D0 D0C0 C0B0 B0A0 A0A1"/>
    </vehicle>
    <vehicle id="flow_16.3" type="car" depart="467.00">
        <route edges="D1D2 D2C2 C2B2 B2A2 A2A1"/>
    </vehicle>
    <vehicle id="flow_71.5" type="car" depart="469.73">
        <route edges="C1C2 C2B2 B2A2 A2A3"/>
    </vehicle>
    <vehicle id="EV_6" type="ambulance" depart="470.00">
        <route edges="D3D2 D2D1 D1D0 D0C0"/>
    </vehicle>
    <vehicle id="flow_26.3" type="car" depart="479.00">
        <route edges="D0C0 C0C1 C1C2 C2C3 C3B3"/>
    </vehicle>
    <vehicle id="flow_1.4" type="car" depart="480.00">
        <route edges="B1B0 B0B1 B1B2 B2B3 B3B2"/>
    </vehicle>
    <vehicle id="flow_56.2" type="car" depart="482.00">
        <route edges="B1B2 B2C2 C2C1 C1C0 C0D0"/>
    </vehicle>
    <vehicle id="flow_30.2" type="car" depart="482.43">
        <route edges="C3D3 D3D2 D2C2 C2C3 C3B3"/>
    </vehicle>
    <vehicle id="flow_55.9" type="car" depart="483.00">
        <route edges="D2C2 C2C1 C1C0 C0C1"/>
    </vehicle>
    <vehicle id="flow_72.6" type="car" depart="484.00">
        <route edges="B1B2 B2A2 A2A1 A1A0"/>
    </vehicle>
    <vehicle id="flow_4.8" type="car" depart="492.22">
        <route edges="D2D3 D3C3 C3C2 C2D2"/>
    </vehicle>
    <vehicle id="flow_2.1" type="car" depart="493.15">
        <route edges="C2C3 C3B3 B3B2 B2B1 B1B0 B0A0 A0A1"/>
    </vehicle>
    <vehicle id="flow_53.10" type="car" depart="500.00">
        <route edges="A1B1 B1C1 C1C2 C2C3"/>
    </vehicle>
    <vehicle id="flow_91.6" type="car" depart="504.00">
        <route edges="B1A1 A1A2 A2B2 B2C2 C2D2 D2D1"/>
    </vehicle>
    <vehicle id="flow_47.5" type="car" depart="505.00">
        <route edges="A2A1 A1B1 B1C1 C1C2 C2C3 C3D3 D3D2"/>
    </vehicle>
    <vehicle id="flow_36.3" type="car" depart="508.57">
        <route edges="C3D3 D3D2 D2D1 D1D0 D0C0 C0B0 B0A0 A0A1"/>
    </vehicle>
    <vehicle id="flow_26.4" type="car" depart="519.00">
        <route edges="D0C0 C0C1 C1C2 C2C3 C3B3"/>
    </vehicle>
    <vehicle id="flow_1.5" type="car" depart="520.00">
        <route edges="B1B0 B0B1 B1B2 B2B3 B3B2"/>
    </vehicle>
    <vehicle id="flow_71.6" type="car" depart="524.27">
        <route edges="C1C2 C2B2 B2A2 A2A3"/>
    </vehicle>
    <vehicle id="flow_16.4" type="car" depart="527.00">
        <route edges="D1D2 D2C2 C2B2 B2A2 A2A1"/>
    </vehicle>
    <vehicle id="flow_77.0" type="car" depart="531.00">
        <route edges="B1C1 C1C2 C2B2 B2A2 A2A3 A3B3"/>
    </vehicle>
    <vehicle id="flow_55.10" type="car" depart="533.00">
        <route edges="D2C2 C2C1 C1C0 C0C1"/>
    </vehicle>
    <vehicle id="flow_72.7" type="car" depart="534.00">
        <route edges="B1B2 B2A2 A2A1 A1A0"/>
    </vehicle>
    <vehicle id="flow_4.9" type="car" depart="538.38">
        <route edges="D2D3 D3C3 C3C2 C2D2"/>
    </vehicle>
    <vehicle id="flow_2.2" type="car" depart="539.31">
        <route edges="C2C3 C3B3 B3B2 B2B1 B1B0 B0A0 A0A1"/>
    </vehicle>
    <vehicle id="EV_7" type="ambulance" depart="540.00">
        <route edges="A0A1 A1B1 B1B2 B2B3 B3A3"/>
    </vehicle>
    <vehicle id="flow_91.7" type="car" depart="544.00">
        <route edges="B1A1 A1A2 A2B2 B2C2 C2D2 D2D1"/>
    </vehicle>
    <vehicle id="flow_47.6" type="car" depart="545.00">
        <route edges="A2A1 A1B1 B1C1 C1C2 C2C3 C3D3 D3D2"/>
    </vehicle>
    <vehicle id="flow_53.11" type="car" depart="550.00">
        <route edges="A1B1 B1C1 C1C2 C2C3"/>
    </vehicle>
    <vehicle id="flow_36.4" type="car" depart="551.43">
        <route edges="C3D3 D3D2 D2D1 D1D0 D0C0 C0B0 B0A0 A0A1"/>
    </vehicle>
    <vehicle id="flow_26.5" type="car" depart="559.00">
        <route edges="D0C0 C0C1 C1C2 C2C3 C3B3"/>
    </vehicle>
    <vehicle id="flow_1.6" type="car" depart="560.00">
        <route edges="B1B0 B0B1 B1B2 B2B3 B3B2"/>
    </vehicle>
    <vehicle id="flow_30.3" type="car" depart="568.14">
        <route edges="C3D3 D3D2 D2C2 C2C3 C3B3"/>
    </vehicle>
    <vehicle id="flow_77.1" type="car" depart="573.86">
        <route edges="B1C1 C1C2 C2B2 B2A2 A2A3 A3B3"/>
    </vehicle>
    <vehicle id="flow_25.0" type="car" depart="574.00">
        <route edges="B0A0 A0A1 A1B1 B1C1 C1D1 D1D2 D2C2"/>
    </vehicle>
    <vehicle id="flow_71.7" type="car" depart="578.82">
        <route edges="C1C2 C2B2 B2A2 A2A3"/>
    </vehicle>
    <vehicle id="flow_56.3" type="car" depart="582.00">
        <route edges="B1B2 B2C2 C2C1 C1C0 C0D0"/>
    </vehicle>
    <vehicle id="flow_55.11" type="car" depart="583.00">
        <route edges="D2C2 C2C1 C1C0 C0C1"/>
    </vehicle>
    <vehicle id="flow_72.8" type="car" depart="584.00">
        <route edges="B1B2 B2A2 A2A1 A1A0"/>
    </vehicle>
    <vehicle id="flow_91.8" type="car" depart="584.00">
        <route edges="B1A1 A1A2 A2B2 B2C2 C2D2 D2D1"/>
    </vehicle>
    <vehicle id="flow_4.10" type="car" depart="584.53">
        <route edges="D2D3 D3C3 C3C2 C2D2"/>
    </vehicle>
    <vehicle id="flow_47.7" type="car" depart="585.00">
        <route edges="A2A1 A1B1 B1C1 C1C2 C2C3 C3D3 D3D2"/>
    </vehicle>
    <vehicle id="flow_2.3" type="car" depart="585.46">
        <route edges="C2C3 C3B3 B3B2 B2B1 B1B0 B0A0 A0A1"/>
    </vehicle>
    <vehicle id="flow_16.5" type="car" depart="587.00">
        <route edges="D1D2 D2C2 C2B2 B2A2 A2A1"/>
    </vehicle>
    <vehicle id="flow_36.5" type="car" depart="594.29">
        <route edges="C3D3 D3D2 D2D1 D1D0 D0C0 C0B0 B0A0 A0A1"/>
    </vehicle>
    <vehicle id="flow_26.6" type="car" depart="599.00">
        <route edges="D0C0 C0C1 C1C2 C2C3 C3B3"/>
    </vehicle>
    <vehicle id="flow_1.7" type="car" depart="600.00">
        <route edges="B1B0 B0B1 B1B2 B2B3 B3B2"/>
    </vehicle>
    <vehicle id="flow_50.0" type="car" depart="601.00">
        <route edges="B2C2 C2C3 C3D3"/>
    </vehicle>
    <vehicle id="EV_8" type="ambulance" depart="610.00">
        <route edges="C1C0 C0B0 B0B1 B1B2 B2B3 B3C3"/>
    </vehicle>
    <vehicle id="flow_12.0" type="car" depart="612.00">
        <route edges="B0B1 B1A1 A1A0"/>
    </vehicle>
    <vehicle id="flow_77.2" type="car" depart="616.71">
        <route edges="B1C1 C1C2 C2B2 B2A2 A2A3 A3B3"/>
    </vehicle>
    <vehicle id="flow_91.9" type="car" depart="624.00">
        <route edges="B1A1 A1A2 A2B2 B2C2 C2D2 D2D1"/>
    </vehicle>
    <vehicle id="flow_47.8" type="car" depart="625.00">
        <route edges="A2A1 A1B1 B1C1 C1C2 C2C3 C3D3 D3D2"/>
    </vehicle>
    <vehicle id="flow_25.1" type="car" depart="628.55">
        <route edges="B0A0 A0A1 A1B1 B1C1 C1D1 D1D2 D2C2"/>
    </vehicle>
    <vehicle id="flow_14.0" type="car" depart="629.00">
        <route edges="C2C3 C3C2 C2C1 C1C0 C0C1"/>
    </vehicle>
    <vehicle id="flow_4.11" type="car" depart="630.68">
        <route edges="D2D3 D3C3 C3C2 C2D2"/>
    </vehicle>
    <vehicle id="flow_2.4" type="car" depart="631.61">
        <route edges="C2C3 C3B3 B3B2 B2B1 B1B0 B0A0 A0A1"/>
    </vehicle>
    <vehicle id="flow_71.8" type="car" depart="633.36">
        <route edges="C1C2 C2B2 B2A2 A2A3"/>
    </vehicle>
    <vehicle id="flow_72.9" type="car" depart="634.00">
        <route edges="B1B2 B2A2 A2A1 A1A0"/>
    </vehicle>
    <vehicle id="flow_57.0" type="car" depart="637.00">
        <route edges="A1A2 A2B2 B2C2 C2D2 D2D3"/>
    </vehicle>
    <vehicle id="flow_36.6" type="car" depart="637.14">
        <route edges="C3D3 D3D2 D2D1 D1D0 D0C0 C0B0 B0A0 A0A1"/>
    </vehicle>
    <vehicle id="flow_26.7" type="car" depart="639.00">
        <route edges="D0C0 C0C1 C1C2 C2C3 C3B3"/>
    </vehicle>
    <vehicle id="flow_1.8" type="car" depart="640.00">
        <route edges="B1B0 B0B1 B1B2 B2B3 B3B2"/>
    </vehicle>
    <vehicle id="flow_16.6" type="car" depart="647.00">
        <route edges="D1D2 D2C2 C2B2 B2A2 A2A1"/>
    </vehicle>
    <vehicle id="flow_74.0" type="car" depart="649.00">
        <route edges="C2C3 C3C2 C2C1 C1C0 C0B0"/>
    </vehicle>
    <vehicle id="flow_50.1" type="car" depart="651.00">
        <route edges="B2C2 C2C3 C3D3"/>
    </vehicle>
    <vehicle id="flow_30.4" type="car" depart="653.86">
        <route edges="C3D3 D3D2 D2C2 C2C3 C3B3"/>
    </vehicle>
    <vehicle id="flow_77.3" type="car" depart="659.57">
        <route edges="B1C1 C1C2 C2B2 B2A2 A2A3 A3B3"/>
    </vehicle>
    <vehicle id="flow_91.10" type="car" depart="664.00">
        <route edges="B1A1 A1A2 A2B2 B2C2 C2D2 D2D1"/>
    </vehicle>
    <vehicle id="flow_47.9" type="car" depart="665.00">
        <route edges="A2A1 A1B1 B1C1 C1C2 C2C3 C3D3 D3D2"/>
    </vehicle>
    <vehicle id="flow_4.12" type="car" depart="676.84">
        <route edges="D2D3 D3C3 C3C2 C2D2"/>
    </vehicle>
    <vehicle id="flow_2.5" type="car" depart="677.77">
        <route edges="C2C3 C3B3 B3B2 B2B1 B1B0 B0A0 A0A1"/>
    </vehicle>
    <vehicle id="flow_12.1" type="car" depart="678.67">
        <route edges="B0B1 B1A1 A1A0"/>
    </vehicle>
    <vehicle id="flow_26.8" type="car" depart="679.00">
        <route edges="D0C0 C0C1 C1C2 C2C3 C3B3"/>
    </vehicle>
    <vehicle id="flow_36.7" type="car" depart="680.00">
        <route edges="C3D3 D3D2 D2D1 D1D0 D0C0 C0B0 B0A0 A0A1"/>
    </vehicle>
    <vehicle id="EV_9" type="ambulance" depart="680.00">
        <route edges="D3D2 D2C2 C2D2"/>
    </vehicle>
    <vehicle id="flow_1.9" type="car" depart="680.00">
        <route edges="B1B0 B0B1 B1B2 B2B3 B3B2"/>
    </vehicle>
    <vehicle id="flow_56.4" type="car" depart="682.00">
        <route edges="B1B2 B2C2 C2C1 C1C0 C0D0"/>
    </vehicle>
    <vehicle id="flow_25.2" type="car" depart="683.09">
        <route edges="B0A0 A0A1 A1B1 B1C1 C1D1 D1D2 D2C2"/>
    </vehicle>
    <vehicle id="flow_72.10" type="car" depart="684.00">
        <route edges="B1B2 B2A2 A2A1 A1A0"/>
    </vehicle>
    <vehicle id="flow_57.1" type="car" depart="687.00">
        <route edges="A1A2 A2B2 B2C2 C2D2 D2D3"/>
    </vehicle>
    <vehicle id="flow_71.9" type="car" depart="687.91">
        <route edges="C1C2 C2B2 B2A2 A2A3"/>
    </vehicle>
    <vehicle id="flow_50.2" type="car" depart="701.00">
        <route edges="B2C2 C2C3 C3D3"/>
    </vehicle>
    <vehicle id="flow_77.4" type="car" depart="702.43">
        <route edges="B1C1 C1C2 C2B2 B2A2 A2A3 A3B3"/>
    </vehicle>
    <vehicle id="flow_61.0" type="car" depart="703.00">
        <route edges="B3A3 A3A2 A2A1 A1B1 B1B0 B0A0"/>
    </vehicle>
    <vehicle id="flow_74.1" type="car" depart="703.55">
        <route edges="C2C3 C3C2 C2C1 C1C0 C0B0"/>
    </vehicle>
    <vehicle id="flow_14.1" type="car" depart="704.00">
        <route edges="C2C3 C3C2 C2C1 C1C0 C0C1"/>
    </vehicle>
    <vehicle id="flow_91.11" type="car" depart="704.00">
        <route edges="B1A1 A1A2 A2B2 B2C2 C2D2 D2D1"/>
    </vehicle>
    <vehicle id="flow_47.10" type="car" depart="705.00">
        <route edges="A2A1 A1B1 B1C1 C1C2 C2C3 C3D3 D3D2"/>
    </vehicle>
    <vehicle id="flow_16.7" type="car" depart="707.00">
        <route edges="D1D2 D2C2 C2B2 B2A2 A2A1"/>
    </vehicle>
    <vehicle id="flow_92.0" type="car" depart="711.00">
        <route edges="B3A3 A3A2 A2A1 A1A2"/>
    </vehicle>
    <vehicle id="flow_26.9" type="car" depart="719.00">
        <route edges="D0C0 C0C1 C1C2 C2C3 C3B3"/>
    </vehicle>
    <vehicle id="flow_1.10" type="car" depart="720.00">
        <route edges="B1B0 B0B1 B1B2 B2B3 B3B2"/>
    </vehicle>
    <vehicle id="flow_41.0" type="car" depart="721.00">
        <route edges="A3B3 B3B2 B2B3"/>
    </vehicle>
    <vehicle id="flow_36.8" type="car" depart="722.86">
        <route edges="C3D3 D3D2 D2D1 D1D0 D0C0 C0B0 B0A0 A0A1"/>
    </vehicle>
    <vehicle id="flow_2.6" type="car" depart="723.92">
        <route edges="C2C3 C3B3 B3B2 B2B1 B1B0 B0A0 A0A1"/>
    </vehicle>
    <vehicle id="flow_51.0" type="car" depart="731.00">
        <route edges="A2A1 A1A2 A2B2 B2B1"/>
    </vehicle>
    <vehicle id="flow_72.11" type="car" depart="734.00">
        <route edges="B1B2 B2A2 A2A1 A1A0"/>
    </vehicle>
    <vehicle id="flow_57.2" type="car" depart="737.00">
        <route edges="A1A2 A2B2 B2C2 C2D2 D2D3"/>
    </vehicle>
    <vehicle id="flow_25.3" type="car" depart="737.64">
        <route edges="B0A0 A0A1 A1B1 B1C1 C1D1 D1D2 D2C2"/>
    </vehicle>
    <vehicle id="flow_30.5" type="car" depart="739.57">
        <route edges="C3D3 D3D2 D2C2 C2C3 C3B3"/>
    </vehicle>
    <vehicle id="flow_71.10" type="car" depart="742.45">
        <route edges="C1C2 C2B2 B2A2 A2A3"/>
    </vehicle>
    <vehicle id="flow_91.12" type="car" depart="744.00">
        <route edges="B1A1 A1A2 A2B2 B2C2 C2D2 D2D1"/>
    </vehicle>
    <vehicle id="flow_47.11" type="car" depart="745.00">
        <route edges="A2A1 A1B1 B1C1 C1C2 C2C3 C3D3 D3D2"/>
    </vehicle>
    <vehicle id="flow_77.5" type="car" depart="745.29">
        <route edges="B1C1 C1C2 C2B2 B2A2 A2A3 A3B3"/>
    </vehicle>
    <vehicle id="flow_12.2" type="car" depart="745.33">
        <route edges="B0B1 B1A1 A1A0"/>
    </vehicle>
    <vehicle id="EV_10" type="ambulance" depart="750.00">
        <route edges="B1A1 A1A2 A2A3 A3B3 B3C3 C3D3 D3D2"/>
    </vehicle>
    <vehicle id="flow_50.3" type="car" depart="751.00">
        <route edges="B2C2 C2C3 C3D3"/>
    </vehicle>
    <vehicle id="flow_74.2" type="car" depart="758.09">
        <route edges="C2C3 C3C2 C2C1 C1C0 C0B0"/>
    </vehicle>
    <vehicle id="flow_26.10" type="car" depart="759.00">
        <route edges="D0C0 C0C1 C1C2 C2C3 C3B3"/>
    </vehicle>
    <vehicle id="flow_1.11" type="car" depart="760.00">
        <route edges="B1B0 B0B1 B1B2 B2B3 B3B2"/>
    </vehicle>
    <vehicle id="flow_36.9" type="car" depart="765.71">
        <route edges="C3D3 D3D2 D2D1 D1D0 D0C0 C0B0 B0A0 A0A1"/>
    </vehicle>
    <vehicle id="flow_43.0" type="car" depart="766.00">
        <route edges="D2D1 D1C1 C1C2 C2B2 B2A2 A2A1"/>
    </vehicle>
    <vehicle id="flow_16.8" type="car" depart="767.00">
        <route edges="D1D2 D2C2 C2B2 B2A2 A2A1"/>
    </vehicle>
    <vehicle id="flow_2.7" type="car" depart="770.07">
        <route edges="C2C3 C3B3 B3B2 B2B1 B1B0 B0A0 A0A1"/>
    </vehicle>
    <vehicle id="flow_14.2" type="car" depart="779.00">
        <route edges="C2C3 C3C2 C2C1 C1C0 C0C1"/>
    </vehicle>
    <vehicle id="flow_41.1" type="car" depart="781.00">
        <route edges="A3B3 B3B2 B2B3"/>
    </vehicle>
    <vehicle id="flow_56.5" type="car" depart="782.00">
        <route edges="B1B2 B2C2 C2C1 C1C0 C0D0"/>
    </vehicle>
    <vehicle id="flow_91.13" type="car" depart="784.00">
        <route edges="B1A1 A1A2 A2B2 B2C2 C2D2 D2D1"/>
    </vehicle>
    <vehicle id="flow_47.12" type="car" depart="785.00">
        <route edges="A2A1 A1B1 B1C1 C1C2 C2C3 C3D3 D3D2"/>
    </vehicle>
    <vehicle id="flow_57.3" type="car" depart="787.00">
        <route edges="A1A2 A2B2 B2C2 C2D2 D2D3"/>
    </vehicle>
    <vehicle id="flow_77.6" type="car" depart="788.14">
        <route edges="B1C1 C1C2 C2B2 B2A2 A2A3 A3B3"/>
    </vehicle>
    <vehicle id="flow_61.1" type="car" depart="788.71">
        <route edges="B3A3 A3A2 A2A1 A1B1 B1B0 B0A0"/>
    </vehicle>
    <vehicle id="flow_25.4" type="car" depart="792.18">
        <route edges="B0A0 A0A1 A1B1 B1C1 C1D1 D1D2 D2C2"/>
    </vehicle>
    <vehicle id="flow_26.11" type="car" depart="799.00">
        <route edges="D0C0 C0C1 C1C2 C2C3 C3B3"/>
    </vehicle>
    <vehicle id="flow_1.12" type="car" depart="800.00">
        <route edges="B1B0 B0B1 B1B2 B2B3 B3B2"/>
    </vehicle>
    <vehicle id="flow_50.4" type="car" depart="801.00">
        <route edges="B2C2 C2C3 C3D3"/>
    </vehicle>
    <vehicle id="flow_51.1" type="car" depart="806.00">
        <route edges="A2A1 A1A2 A2B2 B2B1"/>
    </vehicle>
    <vehicle id="flow_36.10" type="car" depart="808.57">
        <route edges="C3D3 D3D2 D2D1 D1D0 D0C0 C0B0 B0A0 A0A1"/>
    </vehicle>
    <vehicle id="flow_82.0" type="car" depart="811.00">
        <route edges="B0C0 C0C1 C1C2 C2C3 C3B3"/>
    </vehicle>
    <vehicle id="flow_12.3" type="car" depart="812.00">
        <route edges="B0B1 B1A1 A1A0"/>
    </vehicle>
    <vehicle id="flow_74.3" type="car" depart="812.64">
        <route edges="C2C3 C3C2 C2C1 C1C0 C0B0"/>
    </vehicle>
    <vehicle id="flow_43.1" type="car" depart="816.00">
        <route edges="D2D1 D1C1 C1C2 C2B2 B2A2 A2A1"/>
    </vehicle>
    <vehicle id="flow_2.8" type="car" depart="816.22">
        <route edges="C2C3 C3B3 B3B2 B2B1 B1B0 B0A0 A0A1"/>
    </vehicle>
    <vehicle id="EV_11" type="ambulance" depart="820.00">
        <route edges="D1D2 D2D3 D3C3 C3C2"/>
    </vehicle>
    <vehicle id="flow_91.14" type="car" depart="824.00">
        <route edges="B1A1 A1A2 A2B2 B2C2 C2D2 D2D1"/>
    </vehicle>
    <vehicle id="flow_47.13" type="car" depart="825.00">
        <route edges="A2A1 A1B1 B1C1 C1C2 C2C3 C3D3 D3D2"/>
    </vehicle>
    <vehicle id="flow_30.6" type="car" depart="825.28">
        <route edges="C3D3 D3D2 D2C2 C2C3 C3B3"/>
    </vehicle>
    <vehicle id="flow_16.9" type="car" depart="827.00">
        <route edges="D1D2 D2C2 C2B2 B2A2 A2A1"/>
    </vehicle>
    <vehicle id="flow_77.7" type="car" depart="831.00">
        <route edges="B1C1 C1C2 C2B2 B2A2 A2A3 A3B3"/>
    </vehicle>
    <vehicle id="flow_92.1" type="car" depart="831.00">
        <route edges="B3A3 A3A2 A2A1 A1A2"/>
    </vehicle>
    <vehicle id="flow_57.4" type="car" depart="837.00">
        <route edges="A1A2 A2B2 B2C2 C2D2 D2D3"/>
    </vehicle>
    <vehicle id="flow_26.12" type="car" depart="839.00">
        <route edges="D0C0 C0C1 C1C2 C2C3 C3B3"/>
    </vehicle>
    <vehicle id="flow_1.13" type="car" depart="840.00">
        <route edges="B1B0 B0B1 B1B2 B2B3 B3B2"/>
    </vehicle>
    <vehicle id="flow_41.2" type="car" depart="841.00">
        <route edges="A3B3 B3B2 B2B3"/>
    </vehicle>
    <vehicle id="flow_25.5" type="car" depart="846.73">
        <route edges="B0A0 A0A1 A1B1 B1C1 C1D1 D1D2 D2C2"/>
    </vehicle>
    <vehicle id="flow_50.5" type="car" depart="851.00">
        <route edges="B2C2 C2C3 C3D3"/>
    </vehicle>
    <vehicle id="flow_36.11" type="car" depart="851.43">
        <route edges="C3D3 D3D2 D2D1 D1D0 D0C0 C0B0 B0A0 A0A1"/>
    </vehicle>
    <vehicle id="flow_14.3" type="car" depart="854.00">
        <route edges="C2C3 C3C2 C2C1 C1C0 C0C1"/>
    </vehicle>
    <vehicle id="flow_82.1" type="car" depart="857.15">
        <route edges="B0C0 C0C1 C1C2 C2C3 C3B3"/>
    </vehicle>
    <vehicle id="flow_6.0" type="car" depart="862.00">
        <route edges="A0A1 A1B1 B1B0 B0A0"/>
    </vehicle>
    <vehicle id="flow_2.9" type="car" depart="862.38">
        <route edges="C2C3 C3B3 B3B2 B2B1 B1B0 B0A0 A0A1"/>
    </vehicle>
    <vehicle id="flow_47.14" type="car" depart="865.00">
        <route edges="A2A1 A1B1 B1C1 C1C2 C2C3 C3D3 D3D2"/>
    </vehicle>
    <vehicle id="flow_43.2" type="car" depart="866.00">
        <route edges="D2D1 D1C1 C1C2 C2B2 B2A2 A2A1"/>
    </vehicle>
    <vehicle id="flow_74.4" type="car" depart="867.18">
        <route edges="C2C3 C3C2 C2C1 C1C0 C0B0"/>
    </vehicle>
    <vehicle id="flow_77.8" type="car" depart="873.86">
        <route edges="B1C1 C1C2 C2B2 B2A2 A2A3 A3B3"/>
    </vehicle>
    <vehicle id="flow_61.2" type="car" depart="874.43">
        <route edges="B3A3 A3A2 A2A1 A1B1 B1B0 B0A0"/>
    </vehicle>
    <vehicle id="flow_12.4" type="car" depart="878.66">
        <route edges="B0B1 B1A1 A1A0"/>
    </vehicle>
    <vehicle id="flow_26.13" type="car" depart="879.00">
        <route edges="D0C0 C0C1 C1C2 C2C3 C3B3"/>
    </vehicle>
    <vehicle id="flow_1.14" type="car" depart="880.00">
        <route edges="B1B0 B0B1 B1B2 B2B3 B3B2"/>
    </vehicle>
    <vehicle id="flow_51.2" type="car" depart="881.00">
        <route edges="A2A1 A1A2 A2B2 B2B1"/>
    </vehicle>
    <vehicle id="flow_57.5" type="car" depart="887.00">
        <route edges="A1A2 A2B2 B2C2 C2D2 D2D3"/>
    </vehicle>