<?xml version="1.0" encoding="UTF-8"?>

<!-- generated on 2025-10-02 20:08:46 by Eclipse SUMO polyconvert Version 1.23.1
<polyconvertConfiguration xmlns:xsi="http://www.w3.org/2001/XMLSchema-instance" xsi:noNamespaceSchemaLocation="http://sumo.dlr.de/xsd/polyconvertConfiguration.xsd">

    <input>
        <net-file value="test.net.xml"/>
        <osm-files value="osm_bbox.osm.xml.gz"/>
        <type-file value="typemap.xml"/>
    </input>

    <output>
        <output-file value="map.poly.xml"/>
    </output>

    <report>
        <xml-validation value="never"/>
    </report>

</polyconvertConfiguration>
-->

<additional xmlns:xsi="http://www.w3.org/2001/XMLSchema-instance" xsi:noNamespaceSchemaLocation="http://sumo.dlr.de/xsd/additional_file.xsd">
    <location netOffset="-372662.46,-762083.48" convBoundary="-0.34,-5.08,6117.97,2993.81" origBoundary="79.847388,6.893161,79.902783,6.920169" projParameter="+proj=utm +zone=44 +ellps=WGS84 +datum=WGS84 +units=m +no_defs"/>

    <poly id="1000695186" type="building" color="255,230,230" fill="1" layer="-1.00" shape="476.876406,1338.610013 487.071017,1309.384323 507.629202,1316.466455 497.423533,1345.692166 476.876406,1338.610013"/>
    <poly id="1000695187" type="building" color="255,230,230" fill="1" layer="-1.00" shape="606.016121,1422.740055 608.857409,1414.208391 613.689885,1415.799999 618.297335,1401.945744 628.846937,1405.414310 636.167513,1407.818137 633.381069,1416.183814 640.192941,1418.411956 644.306764,1406.051566 648.873839,1407.555360 657.233888,1410.299450 648.457758,1436.680074 606.016121,1422.740055"/>
    <poly id="1000695188" type="building" color="255,230,230" fill="1" layer="-1.00" shape="557.037164,1405.885749 567.432206,1377.289836 575.328400,1380.123486 572.397628,1388.202037 600.830577,1398.416435 598.086392,1405.974864 601.072357,1407.051245 596.363283,1419.999086 557.037164,1405.885749"/>
    <poly id="1000695189" type="building" color="255,230,230" fill="1" layer="-1.00" shape="641.736098,1384.706998 653.156510,1350.569167 679.453209,1359.251849 669.524816,1388.941233 656.520210,1384.638247 655.028205,1389.097743 641.736098,1384.706998"/>
    <poly id="1000695190" type="building" color="255,230,230" fill="1" layer="-1.00" shape="611.919602,1336.792086 649.121827,1349.904410 645.412117,1360.306765 628.547268,1354.365606 625.528995,1362.820296 618.362813,1360.294473 615.728692,1367.675726 602.557507,1363.030390 611.919602,1336.792086"/>
    <poly id="1000695194" type="building" color="255,230,230" fill="1" layer="-1.00" shape="1140.871707,930.952400 1147.599841,907.440541 1155.129699,909.556468 1151.710925,921.539193 1176.600410,928.555935 1173.302093,940.085040 1140.871707,930.952400"/>
    <poly id="1000695194#1" type="tourism" color="207,245,201" fill="1" layer="-2.00" shape="1140.871707,930.952400 1147.599841,907.440541 1155.129699,909.556468 1151.710925,921.539193 1176.600410,928.555935 1173.302093,940.085040 1140.871707,930.952400"/>
    <poly id="1001388161" type="parking" color="184,184,179" fill="1" layer="-1.00" shape="1403.393293,1565.924867 1407.019701,1557.601467 1415.693839,1548.492012 1419.550181,1543.905265 1417.512856,1542.141050 1415.043732,1540.012993 1406.644231,1543.836634 1397.925055,1543.359941 1390.469073,1539.751149 1387.063060,1543.209025 1389.967664,1547.237811 1403.393293,1565.924867"/>
    <poly id="1001407733" type="building" color="255,230,230" fill="1" layer="-1.00" shape="857.991175,650.499996 879.831204,657.546059 870.386751,686.427046 848.546732,679.380988 857.991175,650.499996"/>
    <poly id="1001407737" type="unknown" color="51,128,255" fill="0" layer="-1.00" shape="867.723553,612.673343 858.753935,641.431567 888.621190,650.625504 897.579771,621.867315"/>
    <poly id="1001407738" type="parking" color="184,184,179" fill="1" layer="-1.00" shape="853.336458,575.678560 867.014831,579.803097 867.080598,579.581803 873.279434,561.146253 874.069329,558.778196 860.423278,554.310817 853.336458,575.678560"/>
    <poly id="1001407739" type="unknown" color="51,128,255" fill="0" layer="-1.00" shape="867.080598,579.581803 873.279434,561.146253 874.069329,558.778196"/>
    <poly id="1001407740" type="building" color="255,230,230" fill="1" layer="-1.00" shape="967.487890,574.442751 986.850106,580.367007 988.154937,576.162286 983.532773,574.747038 992.677517,545.258680 977.937457,540.749667 967.487890,574.442751"/>
    <poly id="1001407741" type="unknown" color="51,128,255" fill="0" layer="-1.00" shape="874.069329,558.778196 860.423278,554.310817 853.336458,575.678560 867.014831,579.803097"/>
    <poly id="1001407742" type="parking" color="184,184,179" fill="1" layer="-1.00" shape="858.753935,641.431567 867.723553,612.673343 893.023931,620.462973 897.579771,621.867315 888.621190,650.625504 858.753935,641.431567"/>
    <poly id="1001407743" type="unknown" color="51,128,255" fill="0" layer="-1.00" shape="897.579771,621.867315 893.023931,620.462973 867.723553,612.673343"/>
    <poly id="1012722879" type="building" color="255,230,230" fill="1" layer="-1.00" shape="791.101480,261.438098 795.449703,245.384203 808.264430,248.736835 803.637202,263.641487 802.469914,265.302813 800.692903,266.136341 798.007428,265.976934 798.478159,264.140371 791.101480,261.438098"/>
    <poly id="1012722880" type="building" color="255,230,230" fill="1" layer="-1.00" shape="793.268992,239.153386 809.936661,245.681137 818.855209,223.236487 802.187536,216.708733 793.268992,239.153386"/>
    <poly id="1013492084" type="building" color="255,230,230" fill="1" layer="-1.00" shape="2916.563587,1581.785625 2927.223219,1589.842916 2936.013522,1578.367333 2925.353889,1570.310041 2916.563587,1581.785625"/>
    <poly id="1020253342" type="parking" color="184,184,179" fill="1" layer="-1.00" shape="5215.411584,2872.708593 5228.109740,2873.906370 5225.197132,2904.296914 5221.889775,2935.982009 5208.550380,2934.608820 5208.993416,2930.317796 5215.238090,2874.124252 5215.411584,2872.708593"/>
    <poly id="1020253344" type="building" color="255,230,230" fill="1" layer="-1.00" shape="5088.962720,2932.985227 5092.178441,2933.176764 5091.976383,2936.560582 5088.760663,2936.369045 5088.962720,2932.985227"/>
    <poly id="1020253344#1" type="building" color="255,230,230" fill="1" layer="-1.00" shape="5088.962720,2932.985227 5092.178441,2933.176764 5091.976383,2936.560582 5088.760663,2936.369045 5088.962720,2932.985227"/>
    <poly id="1020253346" type="leisure" color="207,245,201" fill="1" layer="-2.00" shape="5166.927246,2853.250980 5126.805400,2833.099495 5090.644319,2843.687477 5090.061230,2849.515710 5092.414952,2849.631857 5166.927246,2853.250980"/>
    <poly id="1020253350" type="building" color="255,230,230" fill="1" layer="-1.00" shape="5208.993416,2930.317796 5205.346298,2929.917177 5211.590968,2873.723633 5215.238090,2874.124252 5208.993416,2930.317796"/>
    <poly id="1020253352" type="building" color="255,230,230" fill="1" layer="-1.00" shape="5112.125642,2939.499004 5112.626166,2931.426455 5156.740250,2934.121178 5156.239746,2942.204782 5112.125642,2939.499004"/>
    <poly id="1020253355" type="leisure" color="207,245,201" fill="1" layer="-2.00" shape="5211.685654,2871.677926 5212.052273,2867.785120 5212.429915,2863.881231 5230.687007,2865.618922 5229.931694,2873.415641 5211.685654,2871.677926"/>
    <poly id="1020264832" type="amenity" color="237,199,199" fill="0" layer="-1.00" shape="5216.885409,2941.101832 5185.494898,2941.031078"/>
    <poly id="1023346387" type="building" color="255,230,230" fill="1" layer="-1.00" shape="3049.875513,1736.497386 3049.863707,1736.176768 3049.426048,1723.971143 3072.760376,1723.142057 3073.209836,1735.668299 3058.990492,1736.177323 3049.875513,1736.497386"/>
    <poly id="1023346388" type="building" color="255,230,230" fill="1" layer="-1.00" shape="3015.806128,1772.147463 3024.700377,1771.938482 3024.640583,1765.337740 3023.827787,1739.334168 3023.817285,1734.889376 3014.923030,1735.098356 3015.806128,1772.147463"/>
    <poly id="1023346389" type="building" color="255,230,230" fill="1" layer="-1.00" shape="3160.862511,1758.227213 3160.712122,1750.686863 3182.622011,1750.259228 3182.772370,1757.788521 3160.862511,1758.227213"/>
    <poly id="1023545715" type="amenity" color="237,199,199" fill="1" layer="-1.00" shape="1141.045725,339.235329 1143.631663,330.129378 1131.767342,326.807566 1136.676223,309.514010 1152.587456,313.964988 1145.092658,340.375549 1141.045725,339.235329"/>
    <poly id="1023545715#1" type="building" color="255,230,230" fill="1" layer="-1.00" shape="1141.045725,339.235329 1143.631663,330.129378 1131.767342,326.807566 1136.676223,309.514010 1152.587456,313.964988 1145.092658,340.375549 1141.045725,339.235329"/>
    <poly id="1023550480" type="building" color="255,230,230" fill="1" layer="-1.00" shape="1649.292224,2594.051205 1663.107709,2572.590073 1670.643704,2577.381765 1675.586442,2569.696523 1690.691577,2579.279832 1688.291763,2583.011713 1694.411291,2586.900136 1678.889575,2611.041085 1670.468329,2605.698669 1674.926697,2598.766447 1661.758131,2590.416875 1656.496188,2598.611495 1649.292224,2594.051205"/>
    <poly id="1023562789" type="unknown" color="51,128,255" fill="0" layer="-1.00" shape="1306.720704,1888.517772 1338.619866,1865.255215"/>
    <poly id="1023562790" type="parking" color="184,184,179" fill="1" layer="-1.00" shape="1286.176768,1901.061199 1297.067650,1908.686421 1306.720704,1888.517772 1338.619866,1865.255215 1377.149008,1842.120546 1371.201062,1831.487075 1348.118148,1845.042721 1335.297395,1852.835311 1302.432347,1878.798046 1299.356362,1881.635961 1286.176768,1901.061199"/>
    <poly id="1023562791" type="parking" color="184,184,179" fill="1" layer="-1.00" shape="1297.067650,1908.686421 1309.575471,1913.256089 1342.557731,1899.333947 1347.246185,1891.571890 1338.619866,1865.255215 1306.720704,1888.517772 1297.067650,1908.686421"/>
    <poly id="1025135715" type="amenity" color="237,199,199" fill="1" layer="-1.00" shape="1927.396595,2860.474895 1965.972644,2880.406688 2020.849467,2776.640409 1950.221891,2739.127334 1927.396595,2860.474895"/>
    <poly id="1025151227" type="building" color="255,230,230" fill="1" layer="-1.00" shape="1811.409761,2738.729006 1800.759445,2720.698689 1865.806805,2688.578118 1886.668564,2702.813697 1811.409761,2738.729006"/>
    <poly id="1025151228" type="building" color="255,230,230" fill="1" layer="-1.00" shape="1886.071962,2767.630086 1899.390830,2797.318968 1920.570754,2787.483140 1907.250129,2757.053453 1886.071962,2767.630086"/>
    <poly id="1025791099" type="amenity" color="237,199,199" fill="1" layer="-1.00" shape="2886.924168,1785.278004 2885.186414,1737.295769 2925.739440,1649.265451 2967.650635,1668.316684 3074.725591,1614.858615 3128.479242,1660.959997 3160.734051,1642.927706 3176.218152,1653.947920 3178.664175,1655.689116 3184.663031,1659.964981 3212.842081,1680.021789 3183.150057,1721.178726 3221.109445,1732.577134 3222.597509,1773.207180 3155.290514,1775.632635 3041.427147,1780.456893 2886.924168,1785.278004"/>
    <poly id="1025791100" type="building" color="255,230,230" fill="0" layer="-1.00" shape="2235.106478,2006.798603 2258.629353,2006.300387 2258.423852,1994.226867"/>
    <poly id="1025791101" type="amenity" color="237,199,199" fill="1" layer="-1.00" shape="2236.792453,2023.457168 2255.231942,2022.672508 2254.693935,2010.168564 2236.243393,2010.953250 2236.792453,2023.457168"/>
    <poly id="1025791101#1" type="building" color="255,230,230" fill="1" layer="-1.00" shape="2236.792453,2023.457168 2255.231942,2022.672508 2254.693935,2010.168564 2236.243393,2010.953250 2236.792453,2023.457168"/>
    <poly id="1025799444" type="landuse" color="194,194,130" fill="1" layer="-3.00" shape="2689.101012,1180.786341 2711.670651,1202.227269 2795.537491,1071.901795 2772.387886,1057.527471 2761.723151,1061.378338 2689.101012,1180.786341"/>
    <poly id="1025799445" type="landuse" color="194,194,130" fill="1" layer="-3.00" shape="2679.383267,1136.571225 2681.588573,1139.297025 2683.971168,1142.232485 2687.533279,1143.993135 2690.199678,1145.457373 2693.761788,1147.218024 2697.319711,1147.209602 2737.989905,1080.540573 2736.316100,1078.288954 2734.786931,1076.457149 2731.554287,1073.844345 2729.108955,1072.412752 2726.630918,1071.169201 2722.550604,1069.885214 2720.218199,1069.481633 2679.383267,1136.571225"/>
    <poly id="1025799446" type="landuse" color="194,194,130" fill="1" layer="-3.00" shape="2863.233470,999.894919 2861.151308,997.843283 2860.179211,993.279139 2871.177634,976.325248 2873.850746,975.954058 2876.403672,976.158103 2909.462407,998.912197 2911.590149,1001.549735 2911.001993,1005.155628 2902.989116,1018.354215 2899.478520,1019.689320 2863.233470,999.894919"/>
    <poly id="1025799447" type="parking" color="184,184,179" fill="1" layer="-1.00" shape="2918.774787,1007.260162 3006.297440,1063.133332 3018.388731,1036.369555 3018.158764,1018.524497 3017.969803,1004.007425 3000.010549,974.329265 2954.800118,943.388643 2940.194955,967.770113 2918.774787,1007.260162"/>
    <poly id="1025799448" type="amenity" color="237,199,199" fill="1" layer="-1.00" shape="2796.371239,770.271375 2821.207222,764.120395 2834.083222,742.109127 2827.907433,719.125662 2806.770049,705.310442 2781.922178,711.118693 2776.109680,696.924496 2760.418241,687.154248 2740.010684,692.277557 2729.830649,709.550181 2733.964582,728.823398 2752.376581,739.593370 2768.706867,734.490759 2774.368627,755.031892 2775.226813,758.147870 2796.371239,770.271375"/>
    <poly id="1025799448#1" type="building" color="255,230,230" fill="1" layer="-1.00" shape="2796.371239,770.271375 2821.207222,764.120395 2834.083222,742.109127 2827.907433,719.125662 2806.770049,705.310442 2781.922178,711.118693 2776.109680,696.924496 2760.418241,687.154248 2740.010684,692.277557 2729.830649,709.550181 2733.964582,728.823398 2752.376581,739.593370 2768.706867,734.490759 2774.368627,755.031892 2775.226813,758.147870 2796.371239,770.271375"/>
    <poly id="1025799449" type="landuse" color="194,194,130" fill="1" layer="-3.00" shape="2745.052558,810.462423 2747.436273,809.196315 2764.054062,780.829592 2764.720893,777.787406 2764.207020,775.422474 2739.662379,759.923653 2736.591211,760.185222 2726.837208,775.378171 2717.097478,791.931070 2719.064046,796.492862 2745.052558,810.462423"/>
    <poly id="1025799451" type="building" color="255,230,230" fill="1" layer="-1.00" shape="2735.401988,874.050579 2751.809430,882.901408 2758.339218,873.343978 2742.373206,864.259911 2735.401988,874.050579"/>
    <poly id="1025799452" type="landuse" color="194,194,130" fill="1" layer="-3.00" shape="2738.138285,923.744257 2741.416899,922.431804 2752.731112,903.520090 2751.849467,899.829217 2738.724229,891.180703 2734.793693,892.494699 2722.818055,912.060331 2722.825746,915.311001 2738.138285,923.744257"/>
    <poly id="1025799453" type="parking" color="184,184,179" fill="1" layer="-1.00" shape="2642.037669,889.972119 2708.997354,927.041775 2737.430495,881.442755 2724.436013,872.019962 2721.536528,865.448047 2725.846932,856.559269 2737.914971,843.351061 2684.235651,815.128511 2642.037669,889.972119"/>
    <poly id="1025799455" type="building" color="255,230,230" fill="1" layer="-1.00" shape="2796.222023,683.774691 2805.949834,690.208846 2811.763531,681.537663 2802.024670,675.103532 2796.222023,683.774691"/>
    <poly id="1025803702" type="tourism" color="207,245,201" fill="1" layer="-2.00" shape="2347.555658,1085.589985 2355.768722,1091.618549 2362.928051,1081.982162 2354.714987,1075.953597 2347.555658,1085.589985"/>
    <poly id="1025803703" type="landuse" color="194,194,130" fill="1" layer="-3.00" shape="2335.536349,1100.644675 2344.446500,1107.080684 2352.090086,1096.636000 2343.190984,1090.199964 2335.536349,1100.644675"/>
    <poly id="1025803704" type="landuse" color="194,194,130" fill="1" layer="-3.00" shape="2321.139314,1124.130280 2326.231073,1127.910666 2338.942237,1111.063132 2333.861528,1107.282718 2321.139314,1124.130280"/>
    <poly id="1026017848" type="building" color="255,230,230" fill="1" layer="-1.00" shape="707.622007,64.229890 721.863424,68.087697 729.151854,43.225501 715.164549,39.356024 707.622007,64.229890"/>
    <poly id="1026138112" type="building" color="255,230,230" fill="1" layer="-1.00" shape="621.601667,1668.341286 648.705630,1677.353690 665.629160,1625.091498 655.599777,1621.975499 640.417138,1667.599399 633.904828,1665.868099 648.565186,1619.018144 638.359861,1616.256390 621.601667,1668.341286"/>
    <poly id="1026278655" type="building" color="255,230,230" fill="1" layer="-1.00" shape="2752.376581,739.593370 2749.561836,745.493280 2749.996152,751.595586 2764.348543,760.506568 2770.896104,758.456642 2774.368627,755.031892 2768.706867,734.490759 2752.376581,739.593370"/>
    <poly id="1026278656" type="leisure" color="207,245,201" fill="1" layer="-2.00" shape="2973.303073,1731.713835 2973.213900,1712.685364 3005.963931,1712.541627 3006.053066,1731.559039 2973.303073,1731.713835"/>
    <poly id="1026278656#1" type="sport" color="79,230,125" fill="1" layer="-2.00" shape="2973.303073,1731.713835 2973.213900,1712.685364 3005.963931,1712.541627 3006.053066,1731.559039 2973.303073,1731.713835"/>
    <poly id="1026278657" type="leisure" color="207,245,201" fill="1" layer="-2.00" shape="3006.698697,1710.195858 3026.521283,1710.193250 3026.515589,1675.043834 3006.681940,1675.046466 3006.698697,1710.195858"/>
    <poly id="1026278657#1" type="sport" color="79,230,125" fill="1" layer="-2.00" shape="3006.698697,1710.195858 3026.521283,1710.193250 3026.515589,1675.043834 3006.681940,1675.046466 3006.698697,1710.195858"/>
    <poly id="1026278658" type="leisure" color="207,245,201" fill="1" layer="-2.00" shape="3187.625621,1698.004272 3189.465535,1695.744353 3194.148292,1699.503657 3196.869596,1696.158098 3198.452648,1697.425890 3212.609993,1680.000223 3208.857153,1676.990583 3210.410569,1675.063044 3188.967338,1657.865100 3180.395798,1668.411351 3173.587524,1662.943266 3161.876036,1677.355736 3187.625621,1698.004272"/>
    <poly id="1026278658#1" type="sport" color="79,230,125" fill="1" layer="-2.00" shape="3187.625621,1698.004272 3189.465535,1695.744353 3194.148292,1699.503657 3196.869596,1696.158098 3198.452648,1697.425890 3212.609993,1680.000223 3208.857153,1676.990583 3210.410569,1675.063044 3188.967338,1657.865100 3180.395798,1668.411351 3173.587524,1662.943266 3161.876036,1677.355736 3187.625621,1698.004272"/>
    <poly id="1026598882" type="amenity" color="237,199,199" fill="1" layer="-1.00" shape="3281.276393,2029.087806 3291.696550,2038.737884 3305.519446,2024.773781 3294.933160,2014.958241 3281.276393,2029.087806"/>
    <poly id="1026598883" type="building" color="255,230,230" fill="1" layer="-1.00" shape="3340.600175,1925.998541 3412.884064,1925.662349 3414.285898,1892.223452 3340.029539,1894.853031 3339.562318,1902.892387 3335.430647,1903.222772 3334.628457,1909.781314 3334.800374,1912.401358 3335.797285,1918.137459 3340.087893,1919.608949 3340.600175,1925.998541"/>
    <poly id="1026598883#1" type="shop" color="237,199,255" fill="1" layer="-1.00" shape="3340.600175,1925.998541 3412.884064,1925.662349 3414.285898,1892.223452 3340.029539,1894.853031 3339.562318,1902.892387 3335.430647,1903.222772 3334.628457,1909.781314 3334.800374,1912.401358 3335.797285,1918.137459 3340.087893,1919.608949 3340.600175,1925.998541"/>
    <poly id="1026598884" type="building" color="255,230,230" fill="1" layer="-1.00" shape="3338.261662,1974.543173 3357.099754,1974.122837 3356.494621,1947.090519 3339.324879,1947.473750 3339.670462,1962.830757 3338.002102,1962.867860 3338.261662,1974.543173"/>
    <poly id="1026645573" type="building" color="255,230,230" fill="1" layer="-1.00" shape="3339.420828,1800.673099 3344.427043,1801.037230 3348.130718,1801.946211 3350.174837,1801.941394 3352.020928,1802.301916 3354.244858,1803.579257 3354.624442,1805.236875 3354.816188,1806.894935 3339.812114,1807.295168 3339.420828,1800.673099"/>
    <poly id="1026645574" type="building" color="255,230,230" fill="1" layer="-1.00" shape="3381.165519,1828.913166 3380.770986,1816.220952 3389.110379,1819.695236 3389.131609,1828.706432 3381.165519,1828.913166"/>
    <poly id="1026645575" type="building" color="255,230,230" fill="1" layer="-1.00" shape="3586.875701,1981.166662 3606.950591,1980.444974 3606.301112,1962.689381 3586.226215,1963.411068 3586.875701,1981.166662"/>
    <poly id="1026645580" type="landuse" color="194,194,130" fill="1" layer="-3.00" shape="1744.507827,2540.352875 1704.496697,2493.379674 1672.116036,2518.467576 1671.734548,2520.657736 1671.742875,2524.140610 1672.134831,2526.328921 1672.397897,2530.065493 1673.311941,2533.413520 1674.104444,2536.761838 1675.152029,2540.507591 1676.714274,2542.306115 1679.448341,2544.356145 1682.436883,2546.549304 1683.997885,2547.828162 1688.147199,2550.272854 1691.400287,2552.200018 1695.427108,2554.246958 1697.640646,2555.789619 1702.322143,2558.995959 1705.431907,2561.056149 1710.500442,2564.394246 1712.326650,2565.683527 1744.507827,2540.352875"/>
    <poly id="1026645581" type="landuse" color="194,194,130" fill="1" layer="-3.00" shape="1734.727284,2516.416150 1732.660820,2516.310520 1712.690606,2491.436206 1712.234576,2490.176820 1712.451993,2488.683632 1746.567502,2459.003043 1748.133557,2457.771996 1756.689326,2468.542996 1758.162304,2469.976862 1770.031209,2484.687227 1771.904705,2487.270043 1734.727284,2516.416150"/>
    <poly id="1026645582" type="landuse" color="194,194,130" fill="1" layer="-3.00" shape="1750.426694,2455.632554 1767.409827,2441.925773 1789.163094,2468.531765 1772.179966,2482.238540 1750.426694,2455.632554"/>
    <poly id="1026645583" type="landuse" color="194,194,130" fill="1" layer="-3.00" shape="1794.236237,2469.172000 1796.532570,2468.370426 1830.870726,2439.363835 1831.208870,2437.527599 1830.396021,2434.909078 1808.123770,2408.436990 1807.205048,2407.753662 1805.591863,2407.757515 1768.483881,2438.252348 1794.236237,2469.172000"/>
    <poly id="1026645584" type="landuse" color="194,194,130" fill="1" layer="-3.00" shape="1813.491986,2403.083737 1892.030047,2338.169764 1896.822747,2337.041592 1901.055261,2337.307913 1904.728959,2339.543679 1905.867350,2344.306443 1907.435395,2408.741722 1853.102263,2453.419238 1813.491986,2403.083737"/>
    <poly id="1026645586" type="landuse" color="194,194,130" fill="1" layer="-3.00" shape="1730.769031,2422.840813 1732.720066,2420.879096 1724.054084,2410.229987 1723.139800,2411.404193 1721.961259,2412.966018 1721.179565,2414.139907 1720.133932,2415.834097 1719.209602,2417.428486 1718.836043,2418.313923 1730.769031,2422.840813"/>
    <poly id="1026645587" type="landuse" color="194,194,130" fill="1" layer="-3.00" shape="1735.816918,2417.532542 1738.489005,2416.763238 1736.103266,2403.268580 1734.734563,2403.857861 1732.946492,2404.658223 1731.688440,2405.313580 1729.944988,2406.290745 1728.389215,2407.201120 1727.595150,2407.822199 1735.816918,2417.532542"/>
    <poly id="1026645588" type="landuse" color="194,194,130" fill="1" layer="-3.00" shape="1730.193594,2427.099057 1730.444213,2425.627903 1718.390793,2421.565688 1718.271682,2422.583198 1718.098409,2424.054168 1717.979985,2425.359153 1717.895423,2426.962592 1717.898646,2428.311515 1717.902081,2429.748891 1717.905991,2431.385289 1718.120762,2433.408171 1718.212168,2434.668429 1718.512821,2435.640709 1718.979715,2436.822671 1730.193594,2427.099057"/>
    <poly id="1026645589" type="landuse" color="194,194,130" fill="1" layer="-3.00" shape="1741.792932,2416.843799 1742.889261,2417.869462 1752.958758,2410.127757 1752.183728,2409.466200 1751.032338,2408.518065 1750.833055,2408.352689 1750.013828,2407.691238 1748.707749,2406.743473 1747.578933,2405.994307 1746.372692,2405.212156 1744.989374,2404.308803 1743.175031,2403.362252 1742.068603,2402.734658 1741.084536,2402.449532 1739.846389,2402.187127 1741.792932,2416.843799"/>
    <poly id="1026645590" type="landuse" color="194,194,130" fill="1" layer="-3.00" shape="1722.865678,2440.030916 1733.938109,2431.225355 1733.836844,2430.462678 1733.015609,2428.960914 1732.452152,2428.984374 1721.402822,2438.210038 1721.006081,2438.642202 1721.107849,2439.614958 1722.192891,2440.541136 1722.865678,2440.030916"/>
    <poly id="1026645591" type="landuse" color="194,194,130" fill="1" layer="-3.00" shape="1746.774430,2420.746006 1758.146123,2412.326725 1758.078005,2411.563969 1757.300889,2410.028929 1756.748428,2410.030249 1745.377765,2418.880743 1744.958872,2419.290845 1745.027492,2420.263680 1746.079492,2421.234166 1746.774430,2420.746006"/>
    <poly id="1026645592" type="water" color="181,209,209" fill="1" layer="-4.00" shape="1712.400344,2397.719417 1714.377283,2397.349818 1716.120708,2396.361597 1717.443022,2394.854711 1718.201032,2393.017470 1718.317791,2391.015910 1717.771809,2389.104387 1716.618753,2387.459678 1714.991716,2386.291545 1713.078774,2385.699049 1711.067974,2385.770195 1709.312680,2386.415684 1707.680539,2387.735344 1706.689888,2389.318835 1706.219421,2391.265957 1706.411988,2393.244665 1707.245039,2395.067047 1708.629653,2396.512179 1710.410771,2397.425638 1712.400344,2397.719417"/>
    <poly id="1026645593" type="tourism" color="207,245,201" fill="1" layer="-2.00" shape="1709.947453,2388.492846 1709.021564,2389.434888 1708.460934,2390.641419 1708.353586,2391.957435 1708.699177,2393.239199 1709.464163,2394.320938 1710.438185,2395.026246 1711.588202,2395.399429 1712.792594,2395.407608 1713.940841,2395.039989 1714.911508,2394.341091 1715.627409,2393.377438 1716.011437,2392.248726 1716.030682,2391.054545 1715.663309,2389.905515 1714.876278,2388.845943 1713.769586,2388.107782 1712.476034,2387.779168 1711.150444,2387.915018 1709.947453,2388.492846"/>
    <poly id="1026645597" type="water" color="181,209,209" fill="1" layer="-4.00" shape="1691.403566,2368.668084 1692.156922,2369.506601 1693.285793,2370.277879 1694.257861,2370.164988 1694.897395,2369.610619 1695.159775,2368.437971 1694.803452,2367.288914 1694.226857,2366.438918 1661.225253,2325.939319 1660.339093,2325.012666 1659.641564,2324.417265 1658.712662,2324.098838 1657.231932,2324.047094 1656.470301,2324.369562 1656.129228,2324.978502 1655.733359,2325.775538 1655.845410,2326.427622 1656.643810,2327.619849 1657.175548,2328.193531 1691.403566,2368.668084"/>
    <poly id="1026645602" type="water" color="181,209,209" fill="1" layer="-4.00" shape="1635.209077,2300.272324 1635.023804,2301.345277 1635.203156,2302.417359 1635.702672,2303.378107 1636.544318,2304.172185 1637.595106,2304.634058 1638.744466,2304.730822 1639.859725,2304.429622 1640.819476,2303.786032 1641.491260,2302.855654 1641.820094,2301.749187 1641.762098,2300.599418 1641.317591,2299.539027 1640.597460,2298.733602 1639.645930,2298.194093 1638.573625,2297.975521 1637.491090,2298.099734 1636.508817,2298.566468 1635.715043,2299.309172 1635.209077,2300.272324"/>
    <poly id="1026651484" type="landuse" color="194,194,130" fill="1" layer="-3.00" shape="1922.042951,2682.119385 1918.991986,2681.540656 1916.281328,2680.032344 1914.132039,2677.627092 1912.909534,2674.655730 1912.747219,2671.460703 1913.656936,2668.373684 1915.551216,2665.781872 1918.198634,2663.940125 1921.312491,2663.092377 1924.539373,2663.305812 1927.404007,2664.515224 1929.729238,2666.566239 1931.271456,2669.238304 1931.875366,2672.277483 1931.473856,2675.341174 1930.099335,2678.119711 1927.905751,2680.303135 1925.124663,2681.691872 1922.042951,2682.119385"/>
    <poly id="1026657878" type="landuse" color="194,194,130" fill="1" layer="-3.00" shape="2916.250102,995.623361 2930.640052,973.696990 2887.238761,946.190798 2876.163868,963.520795 2875.982977,966.462320 2877.658843,969.587422 2916.250102,995.623361"/>
    <poly id="1026657879" type="amenity" color="237,199,199" fill="1" layer="-1.00" shape="2682.633718,1170.043418 2687.245244,1162.348049 2684.191304,1160.541969 2680.922497,1165.989636 2673.431472,1161.551494 2676.381128,1156.646363 2672.840304,1154.542903 2668.536881,1161.695763 2682.633718,1170.043418"/>
    <poly id="1026657879#1" type="water" color="181,209,209" fill="1" layer="-4.00" shape="2682.633718,1170.043418 2687.245244,1162.348049 2684.191304,1160.541969 2680.922497,1165.989636 2673.431472,1161.551494 2676.381128,1156.646363 2672.840304,1154.542903 2668.536881,1161.695763 2682.633718,1170.043418"/>
    <poly id="1026657880" type="building" color="255,230,230" fill="1" layer="-1.00" shape="1048.927179,317.474985 1051.899578,308.257533 1082.243103,317.870624 1079.281775,327.099103 1048.927179,317.474985"/>
    <poly id="1026682891" type="building" color="255,230,230" fill="1" layer="-1.00" shape="952.874687,2477.114657 984.172386,2484.248469 990.930461,2454.964793 959.621725,2447.842058 952.874687,2477.114657"/>
    <poly id="1026894864" type="amenity" color="237,199,199" fill="1" layer="-1.00" shape="1868.543483,2645.450060 1874.762900,2635.649943 1877.916663,2637.632638 1882.187665,2630.888851 1878.867926,2628.807040 1882.522472,2623.026666 1872.010004,2616.450852 1868.971889,2621.256757 1866.747680,2619.868910 1861.695092,2627.830813 1866.032860,2630.540430 1859.978574,2640.085847 1868.543483,2645.450060"/>
    <poly id="1026894864#1" type="building" color="255,230,230" fill="1" layer="-1.00" shape="1868.543483,2645.450060 1874.762900,2635.649943 1877.916663,2637.632638 1882.187665,2630.888851 1878.867926,2628.807040 1882.522472,2623.026666 1872.010004,2616.450852 1868.971889,2621.256757 1866.747680,2619.868910 1861.695092,2627.830813 1866.032860,2630.540430 1859.978574,2640.085847 1868.543483,2645.450060"/>