<?xml version="1.0" encoding="UTF-8"?>

<!-- generated on 2025-10-02 19:55:49.511894 by randomTrips.py v1_23_1+0000-676720d13f6
<configuration>
    <net-file value="test.net.xml"/>
    <route-file value="map.rou.xml"/>
    <length value="True"/>
    <end value="1000.0"/>
</configuration>
-->

<!-- generated on 2025-10-02 19:55:49 by Eclipse SUMO duarouter Version 1.23.1
<duarouterConfiguration xmlns:xsi="http://www.w3.org/2001/XMLSchema-instance" xsi:noNamespaceSchemaLocation="http://sumo.dlr.de/xsd/duarouterConfiguration.xsd">

    <input>
        <net-file value="test.net.xml"/>
        <route-files value="trips.trips.xml"/>
    </input>

    <output>
        <output-file value="map.rou.xml"/>
        <alternatives-output value="NUL"/>
    </output>

    <time>
        <begin value="0"/>
        <end value="1000.0"/>
    </time>

    <report>
        <no-warnings value="true"/>
        <ignore-errors value="true"/>
        <no-step-log value="true"/>
    </report>

</duarouterConfiguration>
-->

<routes xmlns:xsi="http://www.w3.org/2001/XMLSchema-instance" xsi:noNamespaceSchemaLocation="http://sumo.dlr.de/xsd/routes_file.xsd">
    <vehicle id="0" depart="0.00">
        <route edges="359945309 359945310 1120006849#0 1120006849#1 839348507 119971339 1104565427#1 1104565427#2 1141512439 194100157#0 1110305858 112452773 467592508 1089605515 1089605513 1089605514 119971341#0 119971341#1 947734336 24775231#0 24775231#1 24775231#2 -389274955#1 -389274955#0 -941526159 389274953 385397105 196287359#0 196287359#1 424607775#0 424607775#1 1159086616 925078220 343116285#0 343116285#1 1117292692 1006049762 1117292693 925078187 23811054 98963861 98963843 360011380#0 360011380#1 360011380#2 360011380#3 34698626 230197867 -327349173 -23185502#1 -23185502#0 34698631 34698627#0 23797114 345487956 23797258 102650974 795104527 795104526 180781636 346331468 391087562 -391087562 -346331468 -180781636"/>
    </vehicle>
    <vehicle id="1" depart="1.00">
        <route edges="-510832816 -48730297#1 -48730299#1 -48730299#0 -346326711#0 -385841804 -311546251 34698632 1117294917#2 309917887#0 309917887#1 309917894 309917893#0 1117294926#0 1117294928 1117294932 1117294934 1117294944#0 1117294944#1 925078219 393277185 1159086615 528562512 -51914527 1114878574 1121956778 51911938 98963847 98963904#0 18598861 346587881 396544485#0 396544485#1 -327344250 -327344247 -406577955"/>
    </vehicle>
    <vehicle id="2" depart="2.00">
        <route edges="391271250 467592551 18599245 359934143 1089605514 23581016 1121878510 1089605518 467592516 1104565428 53840881 839348506#0 839348506#1 53840879#0 53840879#1 48890991 194099239 194099240 48678604 1109884535 1113239579 18598993#0 18598993#1 23169384 310934313 1000695191#0 1000695191#1 353840901 48679786 376923636 376923637 356319069#1 356319069#2 356319069#3 356319069#4 359947709 356319074#0 356319074#1 48891772 1148102165 -378848515#1 378848515#1"/>
    </vehicle>
    <vehicle id="3" depart="3.00">
        <route edges="52322536#1 18598988 376923220 376923218 190921397#0 190921397#1 190921397#2 1145596370#0 1145596370#1 24760216#0 24760216#1 378845988 50001645 1116124615 53729538 377514219 -303911709 -303911710 8581742#0 8581742#1 8581742#2 8581742#3 8581742#4 8581742#5 1121956774 1121956776#0 1121956776#1 1121956777#0 1121956777#1 1114878581 1121956780 51911937 1129892798 385397101 1117292687 1117292689#0 1117292689#1 1117292689#2 1121959023#0 1121959023#1 48731536#0 48731536#1 391084171 311103269 311103273 1070554498 1070554497 1244017282 915331153#1 915331153#2 915331153#3 915331153#4 915331153#5 915331150 -1070554497 -1070554498 -311103273"/>
    </vehicle>
    <vehicle id="4" depart="4.00">
        <route edges="13858379#1 366452499#1 396033083 -311101595#0 -308344854 310930756 48847399#4 48847399#5 48847397 194100149#2 1113383569 48678609 993663943 194100157#0 194100157#1 1104565428 53840881 839348506#0 839348506#1 53840879#0 53840879#1 48890991 194099239 194099240 48678604 694737781 -310937069 -18599172#2 -18599172#1 24790517 -467596209#1 -467596209#0 -18599134"/>
    </vehicle>
    <vehicle id="5" depart="5.00">
        <route edges="-396544485#0 -346587881 1087417122#2 52563535 -24745850 -131495855 -131495856 -8111672 -8111673#1 -450935073 -50635253 -1145605127 -450935074 -48678169 -383091341 -383091340 24745878 185732706 1432545219 48678168 47014121 24745879#1"/>
    </vehicle>
    <vehicle id="6" depart="6.00">
        <route edges="-185732706 8111676 143399474 487441121 939306289#0 939306289#1 24775231#1 24775231#2 -389274955#1 -389274955#0 389274952#0 389274952#1 -390001791 -391272225"/>
    </vehicle>
    <vehicle id="7" depart="7.00">
        <route edges="366452499#1 396033083 -311101595#0 -308344854 310930756 48847399#4 48847399#5 48847399#6 48847399#0 48847399#1 48847399#2 310930757 308344854 311101595#0"/>
    </vehicle>
    <vehicle id="8" depart="8.00">
        <route edges="-396544485#1 -396544485#0 -346587881 1087417122#2 1087417122#3 98963860 98963841 1114878572 1121956779 1121956776#0 1121956776#1 1121956777#0 1121956777#1 1114878581 528180789 51914527 393277184#0 393277184#1 528562510 1159086616 925078220 343116285#0 343116285#1 1117294925 1117294930 1117294935 1117294939 1117294941 24563846 386281825#0 386281825#1 311546251 385841804 346326711#0"/>
    </vehicle>
    <vehicle id="9" depart="9.00">
        <route edges="475578804#2 51034388 -816470024 -54225119#1 -54225119#0 346332100 48730040 353791130#1 353791130#2 340573193#0 340573193#1 340573193#2 340573193#3 816466882 98963855 98963910#0 98963910#1 83618538 1117294944#0 1117294944#1 925078219 393277185 1159086615 528562512 -51914527 1114878574 1121956778 51911939 1121956773 115808880#0 115808880#1 115808880#2 115808880#3 115808880#4 8625224 406577943 1116186600 505264636 -505264636 -1116186600"/>
    </vehicle>
    <vehicle id="11" depart="11.00">
        <route edges="1087417122#1 346587881 396544485#0 396544485#1 -327344250 -327344247 -406577955 -50635382 115808880#4 115808880#5 115808880#6 303911710 303911709 377514273 53729648 668329909#0 668329909#1 1116124613 972861652 -24760216#1 -24760216#0 48681871#0 48681871#1 376923183 1424403052 376923182#0 376923182#1 940233634 52322536#0 52322536#1 52322536#2 52322536#3 52322536#4 52322536#5 52322536#6 356319069#0 356319069#1 356319069#2 356319069#3 356319069#4 359947709 356319074#0 356319074#1 48891772 1148102165 -378848515#1"/>
    </vehicle>
    <vehicle id="12" depart="12.00">
        <route edges="8581742#4 -356689197#1 -356689197#0 -487441125 -356689196 -356689198 -356689199 -391271250 -8111675 -311101595#1 -311101595#0 -308344854 310930756 48847399#4 48847399#5 48847397 194100149#2 1141512438 1141512437#0 23581014 1089605499 308346187 1089605502 1089605497 1089605501"/>
    </vehicle>
    <vehicle id="13" depart="13.00">
        <route edges="-343119763#1"/>
    </vehicle>
    <vehicle id="14" depart="14.00">
        <route edges="49003196 376923217 1001407736 190921397#2 1145596370#0 1145596370#1 24760216#0 24760216#1 378845988 50001645 1116124615 53729538 377514219 -303911709 -303911710 8581742#0 8581742#1 8581742#2 8581742#3 8581742#4 8581742#5 1121956774 1121956776#0 1121956776#1 1121956777#0 1121956777#1 1114878581 528180789 51914527 393277184#0 393277184#1 528562510 1159086616 925078220 343116285#0 343116285#1 1117292692 1006049762 1117292693 925078187 23811054 98963861 98963843 360011380#0 360011380#1 360011380#2 360011380#3 34698626 230197867 -327349173 -23185502#1 -23185502#0 34698631 34698627#0"/>
    </vehicle>
    <vehicle id="15" depart="15.00">
        <route edges="475476948 340573193#3 -340573196 360011380#0 360011380#1 360011380#2 360011380#3 1117294922 1117294923 475578804#0 475578804#1 475578804#2 51034388 -816470024 -54225119#1 48730296 391087560"/>
    </vehicle>
    <vehicle id="16" depart="16.00">
        <route edges="303911718 450935075 8581742#1 8581742#2 8581742#3 8581742#4 8581742#5 1121956774 1121956776#0 1121956776#1 1121956777#0 1121956777#1 1114878581 1121956780 51911937 1129892798 385397101 1117292687 1117292689#0 1117292689#1 309708097#1 309708096#0 309708096#1 940233622#0"/>
    </vehicle>
    <vehicle id="17" depart="17.00">
        <route edges="112452775 112656146 1141512443 1135591776 8748509 1148102167 144905255 1141512440#0 1141512440#1 1113382864 24773533#0 24773533#1 24773533#2 24773533#3 24773533#4 1148102169#0 1148102169#1 1113382867 24775231#0 24775231#1 24775231#2 -389274955#1 -389274955#0 -941526159 389274953 385397101 1117292687 1117292689#0 1117292689#1 1117292689#2 1121959023#0 1121959023#1 48731536#0 48731536#1 391084171 311103269 311103273"/>
    </vehicle>
    <vehicle id="18" depart="18.00">
        <route edges="48730297#1 510832816 510832815 -346326711#1 -346326711#0 -385841804 -311546251 34698632 1117294917#2 309917887#0 309917887#1 309917894 309917893#0 309917893#1 1117292694 1117294938 343359263#0 343359263#1 343359263#2 343359263#3 546725501 350014237#0 350014237#1 350014237#2 350014237#3 350014237#4"/>
    </vehicle>
    <vehicle id="19" depart="19.00">
        <route edges="50635255#1 -8111673#1 -450935073 -50635253 -1145605127 8581742#4 8581742#5 1121956774 1121956776#0 1121956776#1 1121956777#0 1121956777#1 1114878581 528180789 51914527 393277184#0 393277184#1 528562510 196287353 393277183 48647286 346332439#0 343359263#2"/>
    </vehicle>
    <vehicle id="20" depart="20.00">
        <route edges="389274952#1 -389274952#1 -389274952#0 389274955#0 389274955#1 939306291#0 939306290#1 -487441121 -143399474 8111662 -233499011#1"/>
    </vehicle>
    <vehicle id="21" depart="21.00">
        <route edges="-406577956 -303911714#1 -303911714#0 -52563580"/>
    </vehicle>
    <vehicle id="22" depart="22.00">
        <route edges="-310937067 1109884434 359945311 53841328 359945309 359945310 1120006849#0 1120006849#1 839348507 665917692 359945312 1141512437#1 194100149#0 48847394#0 48847394#1 48847394#2 48847399#1 48847399#2 48847399#3 13758915 467591926 -18599245 -467592551"/>
    </vehicle>
    <vehicle id="23" depart="23.00">
        <route edges="-345487956 -23797114 -34698627#0 -34698631 23185502#0 23185502#1 327349172 340573193#1 340573193#2 340573193#3 816466882 98963855 98963910#0 98963910#1 83618538 1117294944#0 1117294944#1 925078219 393277185 1159086615 528562512 -51914527"/>
    </vehicle>
    <vehicle id="24" depart="24.00">
        <route edges="356689198 -389274955#0 -941526159 389274953 385397101 1117292687 1117292689#0 1117292689#1 1117292689#2 1121959023#0"/>
    </vehicle>
    <vehicle id="25" depart="25.00">
        <route edges="1117306183 378863527 -378863527 -1117306183 -1117306184 -50732593#1 -50732593#0 -359947711 -310937067 1109884434 359945311 48890990 194099239 112452777 48677467#0 48677467#1 1113382870 24773533#3 24773533#4 1148102169#0 1148102169#1 1113382867 24775231#0 24775231#1 24775231#2 -389274955#1 -389274955#0 -385957470 309709715#0 939311674 1121956775 1121956778 51911938 98963847 98963904#0 24254783 396544484 -23427529 -1105996689 -396544482#0"/>
    </vehicle>
    <vehicle id="26" depart="26.00">
        <route edges="-50633747 -391086653 -54225355 343119763#1 346332317 346332314 309917887#1 309917894 309917893#0 1117294926#0 1117294928 1117294932 1117294934 1117294944#0 1117294944#1 925078219 393277185 1159086615 528562512 -51914527 1114878574 1121956778 51911939 1121956773 115808880#0 8111673#0"/>
    </vehicle>
    <vehicle id="27" depart="27.00">
        <route edges="366452499#1 396033083 311101595#1 8111675 391271250 356689199 356689198 -389274955#0 -941526159 389274953 385397105 196287359#0 196287359#1 424607775#0 424607775#1 1159086616 925078220 343116285#0 343116285#1 1117292692 1006049762 1117292693 925078187 23811054 98963861 98963843 360011380#0 360011380#1 360011380#2 360011380#3 34698626 230197867 -327349173 -23185502#1 -23185502#0 34698631 34698627#0 34698627#1 34698627#2"/>
    </vehicle>
    <vehicle id="28" depart="28.00">
        <route edges="-389274952#1 -389274952#0 -941526159 389274953 385397105 196287359#0 196287359#1 424607775#0 424607775#1 1159086616 925078220 343116285#0 343116285#1 1117294925 1117294930 1117294935 1117294939 1117294941 24563846 386281825#0 386281825#1 386281825#2 230197862 391086662"/>
    </vehicle>
    <vehicle id="29" depart="29.00">
        <route edges="-378848515#1 173011474 52322536#0 52322536#1 18598988 376923220 376923218 190921397#0 1001407732 -376923217 -49003196 194101704#1 194101704#2 194101704#3 194101704#4 194101704#5 24745879#0 24745879#1 1148102167"/>
    </vehicle>
    <vehicle id="30" depart="30.00">
        <route edges="98963860 98963841 1114878572 1121956779 1121956776#0 1121956776#1 309709716 385957470 389274955#0 389274955#1 939306291#0 939306291#1 939306291#2 1113382866 1148102168#1 1148102168#2 1148102168#3 24773533#0 1113382871 112452775 1109888116 112452772#1 112656145 194099277 1109884449 48678604 1109884535 24793835 1109884434 359945311"/>
    </vehicle>
    <vehicle id="31" depart="31.00">
        <route edges="311103269 311103271 -391084171 -48731536#1 51193425#1 1117292686 546725501 24255048 50002945 48731367 1034973641 -552411650#1 -552411650#0 -311101595#2 -311101595#1 -311101595#0 -308344854 310930756 48847399#4 48847399#5 48847397 194100149#2 1113383569 48678609 993663943 194100157#0 194100157#1 1104565428 53840881 839348506#0 839348506#1 53840879#0 53840879#1 48890991 194099239 194099240 48678604 1109884535 1113239579 18598993#0 18598993#1 23169384 310934313 1000695191#0 1000695191#1 353840901 48679786 376923636 376923637 356319069#1 356319069#2 356319069#3 356319069#4 359947709 356319074#0 356319074#1 48891772 1148102165 -378848515#1 378848515#1"/>
    </vehicle>
    <vehicle id="32" depart="32.00">
        <route edges="48847396 665914480#0 665914479 393186966#1 48847395 1313004964 48847399#3 48847399#4 48847399#5 48847397 194100149#2 1113383569 48678609 993663943 194100157#0 194100157#1 1104565428 53840881 839348506#0 839348506#1 53840879#0 53840879#1 48890991 194099239 194099240 48678604 1109884535 1113239579 18598993#0 18598993#1 23169384 1140689916 669745112 -1038163783 46940752 372921056#4 1046833012 18599011#0 18599011#1 455043539 455043517#0 455043517#1 455043095 -455043535 455043101 455043483#0 455043483#1"/>
    </vehicle>
    <vehicle id="33" depart="33.00">
        <route edges="-43444012#1 43444012#1 393186966#1 48847395 1313004964 48847399#3 48847399#4 48847399#5 48847397 194100149#2 1113383569 48678609 993663943 194100157#0 194100157#1 1104565428 53840881 839348506#0 839348506#1 53840879#0 53840879#1 48890991 194099239 194099240 48678604 694737781 -310937069 -18599172#2 -18599172#1 -18599172#0"/>
    </vehicle>
    <vehicle id="34" depart="34.00">
        <route edges="-8111672 -8111673#1 -450935073 -50635253 -1145605127 -450935074 -48678169 -383091341 -383091340 24745878 8111676 143399474 487441121 939306289#0 939306291#2 1113382866 1148102168#1 1148102168#2 1148102168#3 24773533#0 1113382871 112452775 1109888116 112452772#1 112656145 194099277 1109884449 48678604 1109884535 24793835 310937067 359947711 50732593#0 50732593#1 -50732593#1"/>
    </vehicle>
    <vehicle id="35" depart="35.00">
        <route edges="-396544482#0 -18599224 -1121956781 1087417122#1 1087417122#2 1087417122#3 98963860 98963841 1114878572 1121956779 1121956776#0 1121956776#1 1121956777#0 1121956777#1 1114878581 528180789 51914527 393277184#0 393277184#1 528562510 1159086616 925078220 343116285#0 343116285#1 1117292692 1006049762 1117292693 925078187 23811054 98963861 98963843 340573196 816466882"/>
    </vehicle>
    <vehicle id="36" depart="36.00">
        <route edges="51211096 356689197#1 1145605122 115808880#1 50635253 450935073 -8111673#0"/>
    </vehicle>
    <vehicle id="38" depart="38.00">
        <route edges="53091316 1107981340 -306675158 372921056#2 1026499128 1038163783 669745111 668326453 1140689918 310934313 1000695191#0 1000695191#1 353840901 1376199170#0 1376199170#1 1376199170#2 1376199170#3 1376199170#4 1376199170#5 1376199170#6 190921397#0 1001407732 -376923217 -49003196 194101704#1"/>
    </vehicle>
    <vehicle id="39" depart="39.00">
        <route edges="-505264636 -1116186600 -406577943 -8625224 -1145605131 8581742#2 8581742#3 8581742#4 8581742#5 1121956774 1121956776#0 1121956776#1 1121956777#0 1121956777#1 1114878581 528180789 51914527 393277184#0 393277184#1 528562510 1159086616 925078220 343116285#0 343116285#1 1117294925 1117294930 1117294935 1117294939 1117294941 24563846 386281825#0 386281825#1 311546251 385841804 346326711#0 346326711#1 -510832815 -510832816 -48730297#1"/>
    </vehicle>
    <vehicle id="40" depart="40.00">
        <route edges="312653083 -389274952#2 -389274952#1 -389274952#0 -385957470 309709715#0 939311674 1121956775 1121956778 51911939 1121956773 115808880#0 115808880#1 50635253 450935073 8111673#1 -50635255#1 -50635255#0"/>
    </vehicle>
    <vehicle id="41" depart="41.00">
        <route edges="343359263#2 343359263#3 546725501 24255048 50002945 48731367 1034973641 -552411650#1 -552411650#0 -311101595#2 -311101595#1 -311101595#0 -308344854 310930756 48847399#4 48847399#5 48847397 194100149#2 1113383569 48678609 993663943 194100157#0 194100157#1 1104565428 53840881 839348506#0 839348506#1 53840879#0 53840879#1 48890991 194099239 194099240 48678604 1109884535 1113239579 18598993#0 18598993#1 23169384 310934313 1000695191#0 1000695191#1 353840901 1376199170#0 1376199170#1 52445575"/>
    </vehicle>
    <vehicle id="42" depart="42.00">
        <route edges="116896787#0 116896787#1 13859260#2 303911717 23042665#0 23042665#1 303911718 450935075 8581742#1 8581742#2 1145605130 50635382 406577955 327344247 327344250 -396544485#1"/>
    </vehicle>
    <vehicle id="43" depart="43.00">
        <route edges="98963904#1 -1121956781 1087417122#1 1087417122#2 1087417122#3 98963860 98963841 1114878572 1121956779 1121956776#0 1121956776#1 309709716 385957470 389274955#0 389274955#1 939306291#0 939306291#1 939306291#2 1113382866 1148102168#1 1148102168#2 1148102168#3 24773533#0 24773533#1 24773533#2 24773533#3 24773533#4 1148102169#0 1148102169#1 1113382867 24775231#0"/>
    </vehicle>
    <vehicle id="44" depart="44.00">
        <route edges="-343119763#0 -198193175 -131513504 131513504 198193175 343119763#0 343119763#1 346332317 346332314 309917887#1 309917894 309917893#0 1117294926#0 1117294928 1117294932 1117294934 1117294944#0 1117294944#1 925078219 1159086613 366602634 48726959 51982426 385397103 941526159 389274955#0 389274955#1 939306291#0 939306290#1 -487441121 -143399474 8111662 -233499011#1"/>
    </vehicle>
    <vehicle id="45" depart="45.00">
        <route edges="-346326711#1 -346326711#0 -385841804 -311546251 34698632 1117294917#2 309917887#0 309917887#1 309917894 309917893#0 1117294926#0 1117294928 1117294932 1117294934 1117294944#0 1117294944#1 925078219 1159086613 366602634 48726959 51982426 385397103 941526159 389274955#0 389274955#1 939306291#0 939306291#1 939306291#2 1113382866 1148102168#1 1148102168#2 1148102168#3 24773533#0 1113382871 112452775 1109888116 112452772#1 112656145 194099277 1109884449 48678604 1109884535 1113239579 18598993#0 18598993#1 23169384 310934313 1000695191#0 1000695191#1 353840901 48679786 376923636 376923637 356319069#1 356319069#2 356319069#3 356319069#4 359947709 356319074#0 356319074#1"/>
    </vehicle>
    <vehicle id="46" depart="46.00">
        <route edges="46940707 53091314 1105413887 1301755557 359947710 1109884434 359945311 48890990 194099239 112452777 112452772#0 112452772#1 419732613 -1109884589 8748509 1148102167 13859254 1141512441 13758914 48799958 13859260#0"/>
    </vehicle>
    <vehicle id="47" depart="47.00">
        <route edges="-24790517 -18599172#0 24745879#0 24745879#1 1148102167 144905255 1141512440#0 1141512440#1 1113382864 24773533#0 24773533#1 24773533#2 24773533#3 24773533#4 1148102169#0 1148102169#1 1113382867 24775231#0 24775231#1 24775231#2 -389274955#1 -389274955#0 -385957470 309709715#0 939311674 1121956775 1121956778 51911939 1121956773 115808880#0"/>
    </vehicle>
    <vehicle id="48" depart="48.00">
        <route edges="98963904#0 18598861 1087417122#2 1087417122#3 98963860 98963841 1114878572 1121956779 1121956776#0 1121956776#1 309709716 385957470 389274955#0 389274955#1 939306291#0 939306291#1 939306291#2 1113382866 1148102168#1 1148102168#2 1148102168#3 24773533#0 1113382871 112452775 1109888116 112452772#1 112656145 194099277 1109884449 48678604 1109884535 1113239579 18598993#0 18598993#1 23169384 1140689916 669745112 -1038163783 46940752 372921056#4 372921056#5 372921056#0 372921056#1 306675158"/>
    </vehicle>
    <vehicle id="49" depart="49.00">
        <route edges="939306291#2 1113382866 1148102168#1 1148102168#2 1148102168#3 24773533#0 24773533#1 24773533#2 24773533#3 24773533#4 1148102169#0 1148102169#1 1113382867 24775231#0 24775231#1 24775231#2 -389274955#1 -389274955#0 -941526159 389274953 385397101 1117292687 1117292689#0 1117292689#1 1117292689#2 1121959023#0 1121959023#1 48731536#0 48731536#1 391084171 311103269 311103273 1070554498 1070554497 1244017282 915331153#1 915331152#0 50738235"/>
    </vehicle>
    <vehicle id="50" depart="50.00">
        <route edges="-1132624997 -1148102165 -48891772 1148102166 289027979 23169380#0 23169380#1 356578615 185733519#0 185733519#1 669745112 669745111 23169388 194099559 1301755558 1105413887 1301755557 359947710 1109884434 359945311 53841328 359945309 359945310 1120006849#0 1120006849#1 839348507 665917692 359945312 1141512437#1 194100149#0 48847394#0 48847394#1 48847394#2 48847399#1 48847393 1120006850 48847396 665914480#0 665914479 -43444012#1 -43444012#0 238691704 390003247#1"/>
    </vehicle>
    <vehicle id="51" depart="51.00">
        <route edges="378848515#1 -1148102165 -48891772 1148102166 289027979 23169380#0 23169380#1 356578615 185733519#0 185733519#1 669745112 669745111 23169388 194099559 1301755558 1105413887 1301755557 359947710 1109884434 359945311 53841328 359945309 359945310 1120006849#0 1120006849#1 839348507 665917692 359945312 1141512437#1 194100149#0 48847394#0 48847394#1 48847394#2 48847399#1 48847399#2 310930757 308344854 311101595#0 311101595#1 311101595#2 552411650#0 552411650#1 -1034973641 -48731367 48731368 48731370 24791500#3 24791500#4 1117292688 309708097#0 309708097#1 309708096#0 309708096#1"/>
    </vehicle>
    <vehicle id="52" depart="52.00">
        <route edges="-50633747 -391086653 -54225355 343119763#1 346332317 346332314 309917887#1 309917894 309917893#0 1117294926#0 1117294928 1117294932 1117294934 1117294944#0 1117294944#1 925078219 1159086613 366602634 48726959 51982426 385397103 941526159 389274955#0 389274955#1 939306291#0 939306291#1 939306291#2 1113382866 1148102168#1 1148102168#2 1148102168#3 24773533#0 24773533#1 24773533#2 24773533#3 1113382869 119971340 386049465 1089605518 467592516 1104565428 1104565427#0 1104565427#1 53841395 359945312"/>
    </vehicle>
    <vehicle id="53" depart="53.00">
        <route edges="-346326711#3 -346326711#2 -346326711#1 48730299#0 -391086662 -230197862 386281825#3 1117294918 570981155 1117294924 343116284 -327349173 -23185502#1 -23185502#0 34698631 34698627#0 23797114 345487956 23797258 102650974 795104527 795104526 180781636"/>
    </vehicle>
    <vehicle id="54" depart="54.00">
        <route edges="18599011#1 455043502 455043491#0 455043491#1 356578615 185733519#0 185733519#1 669745112 669745111 23169388 194099559 1301755558 1105413887 1301755557 359947710 1109884434 359945311 48890990 194099239 112452777 112452772#0 112452772#1 419732613 -1109884589 8748509 1148102167 13859254 1141512441 13758914 48799956#0 48799956#1 144905253 378847283#0 378847283#1 378847383 48678169 450935074 1145605127 115808880#2 115808880#3 -1145605130 8581742#3"/>
    </vehicle>
    <vehicle id="55" depart="55.00">
        <route edges="51211096 356689197#1 1145605122 115808880#1 50635253 450935073 8111673#1 -50635255#1 -50635255#0"/>
    </vehicle>
    <vehicle id="56" depart="56.00">
        <route edges="23951713#0 46940707 53091314 1105413887 1301755557 359947710 1109884434 359945311 53841328 359945309 359945310 1120006849#0 1120006849#1 839348507 119971339 1104565427#1 1104565427#2 1141512439 194100157#0 1110305858 112452773 467592508 1089605515 1089605513 1089605514 119971341#0 -467592567 -390001790#1"/>
    </vehicle>
    <vehicle id="57" depart="57.00">
        <route edges="53091314 1105413887 1301755557 359947710 1109884434 359945311 48890990 194099239 112452777 112452772#0 112452772#1 419732613 -1109884589 8748509 1148102167 13859254 1141512441 13758914 48799956#0 48799956#1 144905253 378847283#0 378847283#1 143399476 -383091340 51211096"/>
    </vehicle>
    <vehicle id="58" depart="58.00">
        <route edges="-53091316 -23951713#1 -23951713#0 -50732593#0 -359947711 -310937067 1109884434 359945311"/>
    </vehicle>
    <vehicle id="59" depart="59.00">
        <route edges="34698627#1 -34698627#1 -34698627#0 -34698631 23185502#0 23185502#1 327349172 340573193#1 340573193#2 340573193#3 816466882 98963855 98963910#0 98963910#1 83618538 1117294944#0 1117294944#1 925078219 1159086613 366602634 48726959 51982426 385397103 941526159 389274955#0 389274955#1 939306291#0 939306291#1 939306291#2 1113382866 1148102168#1 1148102168#2 1148102168#3 24773533#0 1113382871 112452775 1109888116 112452772#1 112656145 194099277 1109884449 48678604 1109884535 1113239579 18598993#0 18598993#1 23169384 310934313 1000695191#0 1000695191#1 353840901 48679786 376923636 376923637 356319069#1 356319069#2 356319069#3 356319069#4 359947709 356319074#0 356319074#1 48891772 1148102165 -378848515#1"/>
    </vehicle>
    <vehicle id="60" depart="60.00">
        <route edges="396544485#1 -396544485#1 -396544485#0 -346587881 1087417122#2 1087417122#3 98963860 98963841 1114878572 1121956779 1121956776#0 1121956776#1 1121956777#0 1121956777#1 1114878581 528180789 51914527 393277184#0 393277184#1 528562510 1159086616 925078220 343116285#0 343116285#1 1117294925 1117294930 1117294935 1117294939 1117294941 24563846 386281825#0 386281825#1 34698632 1117294917#2 309917887#0"/>
    </vehicle>
    <vehicle id="62" depart="62.00">
        <route edges="-102650974 -23797258 -345487956 -23797114 34698627#1 34698627#2 -345488549 -98963893"/>
    </vehicle>
    <vehicle id="63" depart="63.00">
        <route edges="-13858379#1 -13858379#0 -552411650#1 -552411650#0 -311101595#2 -311101595#1 -311101595#0 -308344854 310930756 48847399#4 48847399#5 48847397 194100149#2 1113383569 48678609 993663943 194100157#0 194100157#1 1104565428 53840881 839348506#0 839348506#1 53840879#0 53840879#1 48890991 194099239 194099240 48678604 694737781 694737780"/>
    </vehicle>
    <vehicle id="64" depart="64.00">
        <route edges="51911938 98963847 98963904#0 18598861 346587881 396544485#0 396544485#1 -327344250 -327344247 -406577955 -50635382 115808880#4 115808880#5 115808880#6 303911710 303911709 377514273 1116124614 1116124615 53729540 194101704#0 194101704#1 194101704#2 194101704#3 194101704#4 -487437184#2 487437184#2"/>
    </vehicle>
    <vehicle id="65" depart="65.00">
        <route edges="-584930044 1244017281 915331153#5 915331150 -1070554497 -1070554498 -311103273 311103271 -391084171 -48731536#1 51193425#1 1117292686 546725501 24255048 50002945 48731367 1034973641 -552411650#1 -552411650#0 -311101595#2 -311101595#1 -311101595#0 -308344854 310930756 48847399#4 48847399#5 48847397 194100149#2 1113383569 48678609 993663943 194100157#0 194100157#1 1104565428 53840881 839348506#0 839348506#1 53840879#0 53840879#1 48890991 194099239 194099240 48678604 1109884535 24793835 310937067 359947711 50732593#0 23951713#0 23951713#1 53091316 -53091316 -23951713#1"/>
    </vehicle>
    <vehicle id="66" depart="66.00">
        <route edges="51911937 385397103 389274953 385397105 196287359#0 196287359#1 424607775#0 424607775#1 1159086616 925078220 343116285#0 343116285#1 1117292692 1006049762 1117292693 925078187 23811054 98963861 98963843 360011380#0 475476943 475476947 475476946 816466883"/>
    </vehicle>
    <vehicle id="67" depart="67.00">
        <route edges="-311103273 311103271 -391084171 -48731536#1 51193425#1 309708096#0 309708096#1 940233622#0 940233622#1 1117294927 1117294937 1117294931 1117294940 1117292693 925078187 23811054 98963861 98963843 360011380#0 360011380#1 360011380#2 360011380#3 34698626 230197867 -327349173 -23185502#1 -23185502#0 34698631 34698627#0 23797114"/>
    </vehicle>
    <vehicle id="68" depart="68.00">
        <route edges="-303911710 8581742#0 8581742#1 8581742#2 1145605130 50635382 406577955"/>
    </vehicle>
    <vehicle id="69" depart="69.00">
        <route edges="406577955 327344247 327344250 -327344250 -327344247 -406577955 -50635382 -1145605130 8581742#3 8581742#4 -356689197#1 -356689197#0"/>
    </vehicle>
    <vehicle id="70" depart="70.00">
        <route edges="228885223 351661196 340573196 816466882 98963855 98963910#0 98963910#1 1117294929 1117294933 1117294936 1117294942 343359263#0 343359263#1 343359263#2 343359263#3 546725501 1117292689#0 1117292689#1 1117292689#2 1121959023#0 1121959023#1 48731536#0 48731536#1 391084171 311103269 311103271"/>
    </vehicle>
    <vehicle id="71" depart="71.00">
        <route edges="-505264636 -1116186600 -406577943 -8625224 -1145605131 8581742#2 8581742#3 8581742#4 8581742#5 1121956774 1121956776#0 1121956776#1 1121956777#0 1121956777#1 1114878581 1121956780 51911937"/>
    </vehicle>
    <vehicle id="72" depart="72.00">
        <route edges="13858379#1 -366452499#0 -24877907 24791500#1 24791500#2 24791500#3 24791500#4 1117292688 309708097#0 309708097#1 309708096#0 309708096#1 940233622#0 940233622#1 1117294927 1117294937 1117294931 1117294940 1117292693 925078187 23811054 98963861 98963843 360011380#0 360011380#1 360011380#2 360011380#3 34698626 230197867 -327349173 -23185502#1 -23185502#0 34698631 34698627#0 34698627#1 34698627#2 -345488549 -98963893 -98963854 -396544482#1"/>
    </vehicle>
    <vehicle id="73" depart="73.00">