<?xml version="1.0" encoding="UTF-8"?>

<!-- generated on 2025-10-02 19:53:33 by Eclipse SUMO netedit Version 1.23.1
<neteditConfiguration xmlns:xsi="http://www.w3.org/2001/XMLSchema-instance" xsi:noNamespaceSchemaLocation="http://sumo.dlr.de/xsd/neteditConfiguration.xsd">

    <input>
        <sumo-net-file value="C:\Users\msi\Desktop\simulation\2025-10-02-19-10-40\test.net.xml"/>
    </input>

    <output>
        <output-file value="C:\Users\msi\Desktop\simulation\2025-10-02-19-10-40\test.net.xml"/>
    </output>

    <processing>
        <geometry.min-radius.fix.railways value="false"/>
        <geometry.avoid-overlap value="false"/>
        <geometry.max-grade.fix value="false"/>
        <offset.disable-normalization value="true"/>
        <lefthand value="0"/>
    </processing>

    <junctions>
        <no-turnarounds value="true"/>
        <junctions.corner-detail value="5"/>
        <junctions.limit-turn-speed value="5.50"/>
        <rectangular-lane-cut value="0"/>
    </junctions>

    <pedestrian>
        <walkingareas value="0"/>
    </pedestrian>

</neteditConfiguration>
-->

<net version="1.20" junctionCornerDetail="5" limitTurnSpeed="5.50" avoidOverlap="0" xmlns:xsi="http://www.w3.org/2001/XMLSchema-instance" xsi:noNamespaceSchemaLocation="http://sumo.dlr.de/xsd/net_file.xsd">

    <location netOffset="-372662.46,-762083.48" convBoundary="0.00,4.05,6116.67,2988.84" origBoundary="79.847388,6.893162,79.902775,6.920151" projParameter="+proj=utm +zone=44 +ellps=WGS84 +datum=WGS84 +units=m +no_defs"/>

    <type id="highway.primary" priority="12" numLanes="2" speed="27.78" disallow="tram rail_urban rail rail_electric rail_fast ship container cable_car subway aircraft wheelchair scooter drone" oneway="0"/>
    <type id="highway.primary_link" priority="7" numLanes="1" speed="22.22" disallow="tram rail_urban rail rail_electric rail_fast ship container cable_car subway aircraft wheelchair scooter drone" oneway="0"/>
    <type id="highway.residential" priority="3" numLanes="1" speed="13.89" disallow="tram rail_urban rail rail_electric rail_fast ship container cable_car subway aircraft wheelchair scooter drone" oneway="0"/>
    <type id="highway.secondary" priority="11" numLanes="1" speed="27.78" disallow="tram rail_urban rail rail_electric rail_fast ship container cable_car subway aircraft wheelchair scooter drone" oneway="0"/>
    <type id="highway.secondary_link" priority="6" numLanes="1" speed="22.22" disallow="tram rail_urban rail rail_electric rail_fast ship container cable_car subway aircraft wheelchair scooter drone" oneway="0"/>
    <type id="highway.tertiary" priority="10" numLanes="1" speed="22.22" disallow="tram rail_urban rail rail_electric rail_fast ship container cable_car subway aircraft wheelchair scooter drone" oneway="0"/>
    <type id="highway.tertiary_link" priority="5" numLanes="1" speed="22.22" disallow="tram rail_urban rail rail_electric rail_fast ship container cable_car subway aircraft wheelchair scooter drone" oneway="0"/>
    <type id="highway.trunk" priority="13" numLanes="2" speed="27.78" disallow="pedestrian bicycle tram rail_urban rail rail_electric rail_fast ship container cable_car subway aircraft wheelchair scooter drone" oneway="0"/>
    <type id="highway.trunk_link" priority="8" numLanes="1" speed="22.22" disallow="pedestrian bicycle tram rail_urban rail rail_electric rail_fast ship container cable_car subway aircraft wheelchair scooter drone" oneway="0"/>

    <edge id=":10035915708_0" function="internal">
        <lane id=":10035915708_0_0" index="0" disallow="tram rail_urban rail rail_electric rail_fast ship container cable_car subway aircraft wheelchair scooter drone" speed="6.52" length="7.94" shape="1777.24,1868.34 1776.41,1870.24 1776.33,1872.06 1777.02,1873.79 1778.46,1875.43"/>
    </edge>
    <edge id=":10035915708_1" function="internal">
        <lane id=":10035915708_1_0" index="0" disallow="tram rail_urban rail rail_electric rail_fast ship container cable_car subway aircraft wheelchair scooter drone" speed="13.89" length="8.44" shape="1772.11,1869.87 1778.46,1875.43"/>
        <lane id=":10035915708_1_1" index="1" disallow="tram rail_urban rail rail_electric rail_fast ship container cable_car subway aircraft wheelchair scooter drone" speed="13.89" length="8.44" shape="1770.00,1872.27 1776.35,1877.83"/>
        <lane id=":10035915708_1_2" index="2" disallow="tram rail_urban rail rail_electric rail_fast ship container cable_car subway aircraft wheelchair scooter drone" speed="13.89" length="8.44" shape="1767.89,1874.68 1774.24,1880.24"/>
    </edge>
    <edge id=":10047011661_0" function="internal">
        <lane id=":10047011661_0_0" index="0" disallow="tram rail_urban rail rail_electric rail_fast ship container cable_car subway aircraft wheelchair scooter drone" speed="22.22" length="0.30" shape="1415.08,2436.28 1415.38,2436.20"/>
    </edge>
    <edge id=":10047011663_0" function="internal">
        <lane id=":10047011663_0_0" index="0" disallow="tram rail_urban rail rail_electric rail_fast ship container cable_car subway aircraft wheelchair scooter drone" speed="11.11" length="1.45" shape="1407.49,2431.21 1408.10,2429.90"/>
    </edge>
    <edge id=":10047011663_1" function="internal">
        <lane id=":10047011663_1_0" index="0" disallow="tram rail_urban rail rail_electric rail_fast ship container cable_car subway aircraft wheelchair scooter drone" speed="11.11" length="1.45" shape="1405.20,2428.54 1404.59,2429.86"/>
    </edge>
    <edge id=":10080488916_0" function="internal">
        <lane id=":10080488916_0_0" index="0" disallow="pedestrian tram rail_urban rail rail_electric rail_fast ship container cable_car subway aircraft wheelchair scooter drone" speed="16.67" length="0.30" shape="1418.52,2424.79 1418.79,2424.93"/>
        <lane id=":10080488916_0_1" index="1" disallow="pedestrian tram rail_urban rail rail_electric rail_fast ship container cable_car subway aircraft wheelchair scooter drone" speed="16.67" length="0.30" shape="1417.03,2427.62 1417.29,2427.76"/>
        <lane id=":10080488916_0_2" index="2" disallow="pedestrian tram rail_urban rail rail_electric rail_fast ship container cable_car subway aircraft wheelchair scooter drone" speed="16.67" length="0.30" shape="1415.54,2430.45 1415.80,2430.59"/>
    </edge>
    <edge id=":10080497117_0" function="internal">
        <lane id=":10080497117_0_0" index="0" disallow="tram rail_urban rail rail_electric rail_fast ship container cable_car subway aircraft wheelchair scooter drone" speed="16.67" length="0.30" shape="1403.25,2407.72 1403.01,2407.58"/>
        <lane id=":10080497117_0_1" index="1" disallow="tram rail_urban rail rail_electric rail_fast ship container cable_car subway aircraft wheelchair scooter drone" speed="16.67" length="0.30" shape="1404.85,2404.94 1404.59,2404.80"/>
        <lane id=":10080497117_0_2" index="2" disallow="tram rail_urban rail rail_electric rail_fast ship container cable_car subway aircraft wheelchair scooter drone" speed="16.67" length="0.30" shape="1406.45,2402.17 1406.17,2402.01"/>
    </edge>
    <edge id=":10089844686_0" function="internal">
        <lane id=":10089844686_0_0" index="0" disallow="pedestrian tram rail_urban rail rail_electric rail_fast ship container cable_car subway aircraft wheelchair scooter drone" speed="5.00" length="6.57" shape="2886.74,1374.18 2884.58,1372.37 2882.97,1371.34 2881.89,1371.07 2881.36,1371.57"/>
    </edge>
    <edge id=":10089844686_1" function="internal">
        <lane id=":10089844686_1_0" index="0" disallow="tram rail_urban rail rail_electric rail_fast ship container cable_car subway aircraft wheelchair scooter drone" speed="16.67" length="17.64" shape="2886.74,1374.18 2873.64,1362.38"/>
        <lane id=":10089844686_1_1" index="1" disallow="tram rail_urban rail rail_electric rail_fast ship container cable_car subway aircraft wheelchair scooter drone" speed="16.67" length="17.64" shape="2888.88,1371.80 2875.78,1360.00"/>
    </edge>
    <edge id=":10089844686_3" function="internal">
        <lane id=":10089844686_3_0" index="0" disallow="tram rail_urban rail rail_electric rail_fast ship container cable_car subway aircraft wheelchair scooter drone" speed="9.67" length="15.62" shape="2888.88,1371.80 2885.34,1368.11 2883.15,1364.65 2882.31,1361.41 2882.82,1358.39"/>
    </edge>
    <edge id=":10089844686_4" function="internal">
        <lane id=":10089844686_4_0" index="0" disallow="pedestrian tram rail_urban rail rail_electric rail_fast ship container cable_car subway aircraft wheelchair scooter drone" speed="11.11" length="12.76" shape="2885.78,1359.61 2884.49,1362.75 2883.39,1365.52 2882.38,1368.33 2881.36,1371.57"/>
    </edge>
    <edge id=":10089844686_5" function="internal">
        <lane id=":10089844686_5_0" index="0" disallow="tram rail_urban rail rail_electric rail_fast ship container cable_car subway aircraft wheelchair scooter drone" speed="6.78" length="12.48" shape="2885.78,1359.61 2884.10,1362.21 2881.87,1363.14 2879.10,1362.40 2875.78,1360.00"/>
    </edge>
    <edge id=":10089844686_6" function="internal">
        <lane id=":10089844686_6_0" index="0" disallow="tram rail_urban rail rail_electric rail_fast ship container cable_car subway aircraft wheelchair scooter drone" speed="3.65" length="4.67" shape="2885.78,1359.61 2884.58,1360.41 2883.69,1360.48 2883.10,1359.81 2882.82,1358.39"/>
    </edge>
    <edge id=":10089844686_7" function="internal">
        <lane id=":10089844686_7_0" index="0" disallow="pedestrian tram rail_urban rail rail_electric rail_fast ship container cable_car subway aircraft wheelchair scooter drone" speed="8.28" length="10.05" shape="2878.25,1370.82 2878.33,1369.02 2877.59,1367.01 2876.03,1364.80 2873.64,1362.38"/>
    </edge>
    <edge id=":10089844686_8" function="internal">
        <lane id=":10089844686_8_0" index="0" disallow="pedestrian tram rail_urban rail rail_electric rail_fast ship container cable_car subway aircraft wheelchair scooter drone" speed="11.11" length="13.25" shape="2878.25,1370.82 2879.29,1367.51 2880.35,1364.54 2881.50,1361.61 2882.82,1358.39"/>
    </edge>
    <edge id=":10089844686_9" function="internal">
        <lane id=":10089844686_9_0" index="0" disallow="pedestrian tram rail_urban rail rail_electric rail_fast ship container cable_car subway aircraft wheelchair scooter drone" speed="3.65" length="4.68" shape="2878.25,1370.82 2879.31,1369.84 2880.18,1369.64 2880.86,1370.21 2881.36,1371.57"/>
    </edge>
    <edge id=":10089844692_0" function="internal">
        <lane id=":10089844692_0_0" index="0" disallow="pedestrian bicycle tram rail_urban rail rail_electric rail_fast ship container cable_car subway aircraft wheelchair scooter drone" speed="16.67" length="0.10" shape="1022.06,324.21 1022.06,324.21"/>
        <lane id=":10089844692_0_1" index="1" disallow="pedestrian bicycle tram rail_urban rail rail_electric rail_fast ship container cable_car subway aircraft wheelchair scooter drone" speed="16.67" length="0.10" shape="1022.90,321.12 1022.90,321.12"/>
    </edge>
    <edge id=":10089844692_2" function="internal">
        <lane id=":10089844692_2_0" index="0" disallow="pedestrian bicycle tram rail_urban rail rail_electric rail_fast ship container cable_car subway aircraft wheelchair scooter drone" speed="16.67" length="0.10" shape="1023.74,318.04 1023.74,318.04"/>
    </edge>
    <edge id=":10120415479_0" function="internal">
        <lane id=":10120415479_0_0" index="0" disallow="tram rail_urban rail rail_electric rail_fast ship container cable_car subway aircraft wheelchair scooter drone" speed="13.89" length="0.30" shape="1267.44,2972.09 1267.17,2972.23"/>
        <lane id=":10120415479_0_1" index="1" disallow="tram rail_urban rail rail_electric rail_fast ship container cable_car subway aircraft wheelchair scooter drone" speed="13.89" length="0.30" shape="1265.97,2969.24 1265.71,2969.38"/>
    </edge>
    <edge id=":10120415479_2" function="internal">
        <lane id=":10120415479_2_0" index="0" disallow="tram rail_urban rail rail_electric rail_fast ship container cable_car subway aircraft wheelchair scooter drone" speed="13.89" length="0.30" shape="1262.78,2963.69 1263.05,2963.55"/>
        <lane id=":10120415479_2_1" index="1" disallow="tram rail_urban rail rail_electric rail_fast ship container cable_car subway aircraft wheelchair scooter drone" speed="13.89" length="0.30" shape="1264.24,2966.54 1264.51,2966.40"/>
    </edge>
    <edge id=":10120419569_0" function="internal">
        <lane id=":10120419569_0_0" index="0" disallow="tram rail_urban rail rail_electric rail_fast ship container cable_car subway aircraft wheelchair scooter drone" speed="11.11" length="0.30" width="5.50" shape="1362.07,2612.18 1361.93,2611.92"/>
    </edge>
    <edge id=":10120441322_0" function="internal">
        <lane id=":10120441322_0_0" index="0" disallow="tram rail_urban rail rail_electric rail_fast ship container cable_car subway aircraft wheelchair scooter drone" speed="11.11" length="0.30" width="4.00" shape="1385.95,2705.77 1386.23,2705.69"/>
    </edge>
    <edge id=":10125040154_0" function="internal">
        <lane id=":10125040154_0_0" index="0" disallow="tram rail_urban rail rail_electric rail_fast ship container cable_car subway aircraft wheelchair scooter drone" speed="13.89" length="0.10" shape="3249.72,1699.43 3249.72,1699.43"/>
    </edge>
    <edge id=":10135002895_0" function="internal">
        <lane id=":10135002895_0_0" index="0" disallow="tram rail_urban rail rail_electric rail_fast ship container cable_car subway aircraft wheelchair scooter drone" speed="11.11" length="1.04" shape="1157.75,2780.18 1157.66,2780.30 1157.61,2780.39 1157.57,2780.49 1157.52,2780.64"/>
        <lane id=":10135002895_0_1" index="1" disallow="tram rail_urban rail rail_electric rail_fast ship container cable_car subway aircraft wheelchair scooter drone" speed="11.11" length="1.04" shape="1155.16,2778.30 1154.89,2778.67 1154.73,2778.94 1154.61,2779.24 1154.47,2779.68"/>
    </edge>
    <edge id=":10137867336_0" function="internal">
        <lane id=":10137867336_0_0" index="0" disallow="tram rail_urban rail rail_electric rail_fast ship container cable_car subway aircraft wheelchair scooter drone" speed="11.11" length="19.84" shape="370.32,2608.90 353.45,2619.34"/>
    </edge>
    <edge id=":10137867336_1" function="internal">
        <lane id=":10137867336_1_0" index="0" disallow="pedestrian tram rail_urban rail rail_electric rail_fast ship container cable_car subway aircraft wheelchair scooter drone" speed="11.11" length="25.01" shape="370.32,2608.90 365.39,2610.81 358.36,2612.44 351.20,2613.40 345.92,2613.34"/>
    </edge>
    <edge id=":10137867336_2" function="internal">
        <lane id=":10137867336_2_0" index="0" disallow="tram rail_urban rail rail_electric rail_fast ship container cable_car subway aircraft wheelchair scooter drone" speed="3.65" length="4.67" shape="370.32,2608.90 368.88,2608.83 368.12,2608.35 368.05,2607.46 368.67,2606.16"/>
    </edge>
    <edge id=":10137867336_3" function="internal">
        <lane id=":10137867336_3_0" index="0" disallow="pedestrian tram rail_urban rail rail_electric rail_fast ship container cable_car subway aircraft wheelchair scooter drone" speed="11.11" length="23.84" shape="345.36,2609.98 350.47,2610.14 357.25,2609.38 363.91,2607.97 368.67,2606.16"/>
    </edge>
    <edge id=":10137867336_4" function="internal">
        <lane id=":10137867336_4_0" index="0" disallow="pedestrian tram rail_urban rail rail_electric rail_fast ship container cable_car subway aircraft wheelchair scooter drone" speed="7.21" length="18.46" shape="345.36,2609.98 352.52,2611.82 356.26,2613.99 356.57,2616.50 353.45,2619.34"/>
    </edge>
    <edge id=":10137867336_5" function="internal">
        <lane id=":10137867336_5_0" index="0" disallow="pedestrian tram rail_urban rail rail_electric rail_fast ship container cable_car subway aircraft wheelchair scooter drone" speed="3.73" length="4.97" shape="345.36,2609.98 346.76,2610.62 347.32,2611.39 347.04,2612.30 345.92,2613.34"/>
    </edge>
    <edge id=":10137867336_6" function="internal">
        <lane id=":10137867336_6_0" index="0" disallow="pedestrian tram rail_urban rail rail_electric rail_fast ship container cable_car subway aircraft wheelchair scooter drone" speed="5.04" length="8.15" shape="351.76,2616.63 352.40,2615.79 351.64,2614.97 349.48,2614.15 345.92,2613.34"/>
    </edge>
    <edge id=":10137867336_7" function="internal">
        <lane id=":10137867336_7_0" index="0" disallow="tram rail_urban rail rail_electric rail_fast ship container cable_car subway aircraft wheelchair scooter drone" speed="11.11" length="19.89" shape="351.76,2616.63 368.67,2606.16"/>
    </edge>
    <edge id=":10137867336_8" function="internal">
        <lane id=":10137867336_8_0" index="0" disallow="tram rail_urban rail rail_electric rail_fast ship container cable_car subway aircraft wheelchair scooter drone" speed="3.65" length="4.67" shape="351.76,2616.63 353.20,2616.67 353.96,2617.14 354.05,2618.03 353.45,2619.34"/>
    </edge>
    <edge id=":10137867343_0" function="internal">
        <lane id=":10137867343_0_0" index="0" disallow="tram rail_urban rail rail_electric rail_fast ship container cable_car subway aircraft wheelchair scooter drone" speed="3.65" length="4.67" shape="353.29,2619.45 351.84,2619.41 351.08,2618.94 351.00,2618.05 351.59,2616.73"/>
    </edge>
    <edge id=":10137867343_1" function="internal">
        <lane id=":10137867343_1_0" index="0" disallow="tram rail_urban rail rail_electric rail_fast ship container cable_car subway aircraft wheelchair scooter drone" speed="11.11" length="3.68" shape="355.26,2616.49 351.59,2616.73"/>
    </edge>
    <edge id=":10137867346_0" function="internal">
        <lane id=":10137867346_0_0" index="0" disallow="pedestrian tram rail_urban rail rail_electric rail_fast ship container cable_car subway aircraft wheelchair scooter drone" speed="6.85" length="9.64" shape="343.26,2612.85 340.49,2612.68 338.32,2613.32 336.75,2614.77 335.77,2617.04"/>
    </edge>
    <edge id=":10137867346_1" function="internal">
        <lane id=":10137867346_1_0" index="0" disallow="pedestrian tram rail_urban rail rail_electric rail_fast ship container cable_car subway aircraft wheelchair scooter drone" speed="11.11" length="11.79" shape="343.26,2612.85 340.07,2612.23 337.48,2611.65 334.93,2610.97 331.82,2610.02"/>
    </edge>
    <edge id=":10137867346_2" function="internal">
        <lane id=":10137867346_2_0" index="0" disallow="pedestrian tram rail_urban rail rail_electric rail_fast ship container cable_car subway aircraft wheelchair scooter drone" speed="3.65" length="4.67" shape="343.26,2612.85 342.23,2611.84 341.98,2610.98 342.52,2610.27 343.85,2609.70"/>
    </edge>
    <edge id=":10137867346_3" function="internal">
        <lane id=":10137867346_3_0" index="0" disallow="pedestrian tram rail_urban rail rail_electric rail_fast ship container cable_car subway aircraft wheelchair scooter drone" speed="6.19" length="9.05" shape="340.06,2603.08 339.55,2605.57 340.01,2607.50 341.44,2608.88 343.85,2609.70"/>
    </edge>
    <edge id=":10137867346_4" function="internal">
        <lane id=":10137867346_4_0" index="0" disallow="tram rail_urban rail rail_electric rail_fast ship container cable_car subway aircraft wheelchair scooter drone" speed="11.11" length="14.60" shape="340.06,2603.08 338.85,2606.57 337.74,2610.01 336.72,2613.47 335.77,2617.04"/>
    </edge>
    <edge id=":10137867346_5" function="internal">
        <lane id=":10137867346_5_0" index="0" disallow="tram rail_urban rail rail_electric rail_fast ship container cable_car subway aircraft wheelchair scooter drone" speed="7.50" length="11.97" shape="340.06,2603.08 338.39,2606.73 336.46,2609.10 334.27,2610.20 331.82,2610.02"/>
    </edge>
    <edge id=":10137867346_6" function="internal">
        <lane id=":10137867346_6_0" index="0" disallow="pedestrian tram rail_urban rail rail_electric rail_fast ship container cable_car subway aircraft wheelchair scooter drone" speed="11.11" length="11.41" shape="332.78,2606.97 335.83,2607.90 338.26,2608.55 340.72,2609.10 343.85,2609.70"/>
    </edge>
    <edge id=":10137867346_7" function="internal">
        <lane id=":10137867346_7_0" index="0" disallow="tram rail_urban rail rail_electric rail_fast ship container cable_car subway aircraft wheelchair scooter drone" speed="7.46" length="11.66" shape="332.78,2606.97 334.89,2608.20 336.10,2610.29 336.39,2613.24 335.77,2617.04"/>
    </edge>
    <edge id=":10137867346_8" function="internal">
        <lane id=":10137867346_8_0" index="0" disallow="tram rail_urban rail rail_electric rail_fast ship container cable_car subway aircraft wheelchair scooter drone" speed="3.65" length="4.67" shape="332.78,2606.97 333.69,2608.09 333.83,2608.98 333.21,2609.62 331.82,2610.02"/>
    </edge>
    <edge id=":10208899032_0" function="internal">
        <lane id=":10208899032_0_0" index="0" disallow="tram rail_urban rail rail_electric rail_fast ship container cable_car subway aircraft wheelchair scooter drone" speed="13.89" length="0.10" shape="2145.56,293.95 2145.56,293.95"/>
    </edge>
    <edge id=":10208899032_1" function="internal">
        <lane id=":10208899032_1_0" index="0" disallow="tram rail_urban rail rail_electric rail_fast ship container cable_car subway aircraft wheelchair scooter drone" speed="13.89" length="0.10" shape="2142.38,293.65 2142.38,293.65"/>
    </edge>
    <edge id=":10219037631_0" function="internal">
        <lane id=":10219037631_0_0" index="0" disallow="tram rail_urban rail rail_electric rail_fast ship container cable_car subway aircraft wheelchair scooter drone" speed="11.11" length="0.23" shape="1146.33,2721.64 1146.28,2721.59 1146.25,2721.56 1146.22,2721.52 1146.18,2721.47"/>
    </edge>
    <edge id=":10219037645_0" function="internal">
        <lane id=":10219037645_0_0" index="0" disallow="tram rail_urban rail rail_electric rail_fast ship container cable_car subway aircraft wheelchair scooter drone" speed="5.40" length="7.72" shape="895.17,2599.58 894.39,2601.14 894.71,2602.51 896.15,2603.67 898.70,2604.62"/>
    </edge>
    <edge id=":10219037645_1" function="internal">
        <lane id=":10219037645_1_0" index="0" disallow="tram rail_urban rail rail_electric rail_fast ship container cable_car subway aircraft wheelchair scooter drone" speed="16.67" length="10.44" shape="895.17,2599.58 888.56,2607.70"/>
        <lane id=":10219037645_1_1" index="1" disallow="tram rail_urban rail rail_electric rail_fast ship container cable_car subway aircraft wheelchair scooter drone" speed="16.67" length="10.44" shape="892.68,2597.57 886.10,2605.65"/>
    </edge>
    <edge id=":10219037645_3" function="internal">
        <lane id=":10219037645_3_0" index="0" disallow="tram rail_urban rail rail_electric rail_fast ship container cable_car subway aircraft wheelchair scooter drone" speed="3.65" length="1.44" shape="892.68,2597.57 891.30,2598.01"/>
    </edge>
    <edge id=":10219037645_7" function="internal">
        <lane id=":10219037645_7_0" index="0" disallow="tram rail_urban rail rail_electric rail_fast ship container cable_car subway aircraft wheelchair scooter drone" speed="3.65" length="3.23" shape="891.30,2598.01 890.43,2597.82 890.06,2597.01 890.18,2595.57"/>
    </edge>
    <edge id=":10219037645_4" function="internal">
        <lane id=":10219037645_4_0" index="0" disallow="tram rail_urban rail rail_electric rail_fast ship container cable_car subway aircraft wheelchair scooter drone" speed="16.67" length="10.36" shape="883.64,2603.60 890.18,2595.57"/>
    </edge>
    <edge id=":10219037645_5" function="internal">
        <lane id=":10219037645_5_0" index="0" disallow="tram rail_urban rail rail_electric rail_fast ship container cable_car subway aircraft wheelchair scooter drone" speed="10.04" length="1.85" shape="883.64,2603.60 885.29,2602.76"/>
    </edge>
    <edge id=":10219037645_6" function="internal">
        <lane id=":10219037645_6_0" index="0" disallow="tram rail_urban rail rail_electric rail_fast ship container cable_car subway aircraft wheelchair scooter drone" speed="3.65" length="1.44" shape="883.64,2603.60 885.03,2603.19"/>
    </edge>
    <edge id=":10219037645_8" function="internal">
        <lane id=":10219037645_8_0" index="0" disallow="tram rail_urban rail rail_electric rail_fast ship container cable_car subway aircraft wheelchair scooter drone" speed="10.04" length="13.63" shape="885.29,2602.76 885.38,2602.71 888.46,2602.59 892.90,2603.23 898.70,2604.62"/>
    </edge>
    <edge id=":10219037645_9" function="internal">
        <lane id=":10219037645_9_0" index="0" disallow="tram rail_urban rail rail_electric rail_fast ship container cable_car subway aircraft wheelchair scooter drone" speed="3.65" length="3.23" shape="885.03,2603.19 885.90,2603.40 886.26,2604.22 886.10,2605.65"/>
    </edge>
    <edge id=":10219037658_0" function="internal">
        <lane id=":10219037658_0_0" index="0" disallow="tram rail_urban rail rail_electric rail_fast ship container cable_car subway aircraft wheelchair scooter drone" speed="5.55" length="6.42" shape="1008.93,2623.25 1009.16,2624.17 1010.12,2624.91 1011.82,2625.49 1014.26,2625.90"/>
    </edge>
    <edge id=":10219037658_1" function="internal">
        <lane id=":10219037658_1_0" index="0" disallow="tram rail_urban rail rail_electric rail_fast ship container cable_car subway aircraft wheelchair scooter drone" speed="3.65" length="4.67" shape="1008.93,2623.25 1007.97,2624.33 1007.13,2624.61 1006.39,2624.10 1005.77,2622.80"/>
    </edge>
    <edge id=":10219037658_2" function="internal">
        <lane id=":10219037658_2_0" index="0" disallow="tram rail_urban rail rail_electric rail_fast ship container cable_car subway aircraft wheelchair scooter drone" speed="5.67" length="6.47" shape="999.95,2624.24 1002.38,2624.39 1004.16,2624.20 1005.29,2623.67 1005.77,2622.80"/>
    </edge>
    <edge id=":10219037658_3" function="internal">
        <lane id=":10219037658_3_0" index="0" disallow="tram rail_urban rail rail_electric rail_fast ship container cable_car subway aircraft wheelchair scooter drone" speed="11.11" length="14.40" shape="999.95,2624.24 1014.26,2625.90"/>
    </edge>
    <edge id=":10219037659_0" function="internal">
        <lane id=":10219037659_0_0" index="0" disallow="tram rail_urban rail rail_electric rail_fast ship container cable_car subway aircraft wheelchair scooter drone" speed="5.64" length="6.44" shape="1014.78,2621.73 1012.35,2621.55 1010.56,2621.71 1009.44,2622.21 1008.96,2623.06"/>
    </edge>
    <edge id=":10219037659_1" function="internal">
        <lane id=":10219037659_1_0" index="0" disallow="tram rail_urban rail rail_electric rail_fast ship container cable_car subway aircraft wheelchair scooter drone" speed="11.11" length="14.40" shape="1014.78,2621.73 1000.50,2619.91"/>
        <lane id=":10219037659_1_1" index="1" disallow="tram rail_urban rail rail_electric rail_fast ship container cable_car subway aircraft wheelchair scooter drone" speed="11.11" length="14.40" shape="1015.19,2618.55 1000.90,2616.74"/>
    </edge>
    <edge id=":10219037659_3" function="internal">
        <lane id=":10219037659_3_0" index="0" disallow="tram rail_urban rail rail_electric rail_fast ship container cable_car subway aircraft wheelchair scooter drone" speed="5.57" length="6.41" shape="1005.79,2622.60 1005.57,2621.69 1004.61,2620.94 1002.92,2620.35 1000.50,2619.91"/>
    </edge>
    <edge id=":10219037659_4" function="internal">
        <lane id=":10219037659_4_0" index="0" disallow="tram rail_urban rail rail_electric rail_fast ship container cable_car subway aircraft wheelchair scooter drone" speed="3.65" length="4.67" shape="1005.79,2622.60 1006.76,2621.53 1007.60,2621.25 1008.34,2621.75 1008.96,2623.06"/>
    </edge>
    <edge id=":10219037660_0" function="internal">
        <lane id=":10219037660_0_0" index="0" disallow="tram rail_urban rail rail_electric rail_fast ship container cable_car subway aircraft wheelchair scooter drone" speed="5.62" length="6.36" shape="1038.84,2624.65 1036.40,2624.50 1034.62,2624.67 1033.51,2625.15 1033.05,2625.95"/>
    </edge>
    <edge id=":10219037660_1" function="internal">
        <lane id=":10219037660_1_0" index="0" disallow="tram rail_urban rail rail_electric rail_fast ship container cable_car subway aircraft wheelchair scooter drone" speed="11.11" length="14.39" shape="1038.84,2624.65 1024.54,2622.96"/>
        <lane id=":10219037660_1_1" index="1" disallow="tram rail_urban rail rail_electric rail_fast ship container cable_car subway aircraft wheelchair scooter drone" speed="11.11" length="14.39" shape="1039.19,2621.46 1024.91,2619.78"/>
    </edge>
    <edge id=":10219037660_3" function="internal">
        <lane id=":10219037660_3_0" index="0" disallow="tram rail_urban rail rail_electric rail_fast ship container cable_car subway aircraft wheelchair scooter drone" speed="5.59" length="6.42" shape="1029.86,2625.64 1029.63,2624.74 1028.66,2623.98 1026.97,2623.39 1024.54,2622.96"/>
    </edge>
    <edge id=":10219037660_4" function="internal">
        <lane id=":10219037660_4_0" index="0" disallow="tram rail_urban rail rail_electric rail_fast ship container cable_car subway aircraft wheelchair scooter drone" speed="3.65" length="4.68" shape="1029.86,2625.64 1030.78,2624.53 1031.61,2624.20 1032.37,2624.68 1033.05,2625.95"/>
    </edge>
    <edge id=":10219037661_0" function="internal">
        <lane id=":10219037661_0_0" index="0" disallow="tram rail_urban rail rail_electric rail_fast ship container cable_car subway aircraft wheelchair scooter drone" speed="5.55" length="6.35" shape="1033.03,2626.15 1033.27,2627.01 1034.24,2627.72 1035.94,2628.28 1038.37,2628.68"/>
    </edge>
    <edge id=":10219037661_1" function="internal">