<?xml version="1.0" encoding="UTF-8"?>
<configuration>
    <input>
        <net-file value="grid_3x3.net.xml"/>
        <route-files value="grid_3x3.rou.xml"/>
        <additional-files value="grid_3x3.add.xml"/>
    </input>
    <time>
        <begin value="0"/>
        <end value="3600"/>
    </time>
</configuration>
